<?xml version="1.0" encoding="UTF-8"?>

<!-- generated on Wed Mar 20 13:07:47 2019 by Eclipse SUMO duarouter Version 1.1.0
<configuration xmlns:xsi="http://www.w3.org/2001/XMLSchema-instance" xsi:noNamespaceSchemaLocation="http://sumo.dlr.de/xsd/duarouterConfiguration.xsd">

    <input>
        <net-file value="net.net.xml"/>
        <route-files value="result.rou.xml"/>
    </input>

    <output>
        <output-file value="myroutes.rou.xml"/>
        <alternatives-output value="myroutes.rou.alt.xml"/>
    </output>

    <processing>
        <randomize-flows value="true"/>
    </processing>

</configuration>
-->

<routes xmlns:xsi="http://www.w3.org/2001/XMLSchema-instance" xsi:noNamespaceSchemaLocation="http://sumo.dlr.de/xsd/routes_file.xsd">
    <vType id="bus" length="9.44" minGap="2.00" vClass="bus" guiShape="bus" width="2.45" height="3.10" latAlignment="left" lcPushy="1"/>
    <vehicle id="myflow.0" type="bus" depart="9.74">
        <route edges="gneE0 gneE16 gneE21 gneE88 gneE33 gneE35 gneE37 gneE39 gneE41 gneE43 gneE45 gneE47 gneE49 gneE51"/>
    </vehicle>
    <vehicle id="myflow1.0" type="bus" depart="18.13">
        <route edges="gneE52 gneE50 gneE48 gneE46 gneE44 gneE42 gneE40 gneE38 gneE36 gneE34 gneE89 gneE22 gneE19 gneE20"/>
    </vehicle>
    <vehicle id="myflow.1" type="bus" depart="18.39">
        <route edges="gneE0 gneE16 gneE21 gneE88 gneE33 gneE35 gneE37 gneE39 gneE41 gneE43 gneE45 gneE47 gneE49 gneE51"/>
    </vehicle>
    <vehicle id="myflow.2" type="bus" depart="55.65">
        <route edges="gneE0 gneE16 gneE21 gneE88 gneE33 gneE35 gneE37 gneE39 gneE41 gneE43 gneE45 gneE47 gneE49 gneE51"/>
    </vehicle>
    <vehicle id="myflow1.1" type="bus" depart="57.85">
        <route edges="gneE52 gneE50 gneE48 gneE46 gneE44 gneE42 gneE40 gneE38 gneE36 gneE34 gneE89 gneE22 gneE19 gneE20"/>
    </vehicle>
    <vehicle id="myflow1.2" type="bus" depart="108.52">
        <route edges="gneE52 gneE50 gneE48 gneE46 gneE44 gneE42 gneE40 gneE38 gneE36 gneE34 gneE89 gneE22 gneE19 gneE20"/>
    </vehicle>
    <vehicle id="myflow1.3" type="bus" depart="158.69">
        <route edges="gneE52 gneE50 gneE48 gneE46 gneE44 gneE42 gneE40 gneE38 gneE36 gneE34 gneE89 gneE22 gneE19 gneE20"/>
    </vehicle>
    <vehicle id="myflow.3" type="bus" depart="163.02">
        <route edges="gneE0 gneE16 gneE21 gneE88 gneE33 gneE35 gneE37 gneE39 gneE41 gneE43 gneE45 gneE47 gneE49 gneE51"/>
    </vehicle>
    <vehicle id="myflow1.4" type="bus" depart="188.13">
        <route edges="gneE52 gneE50 gneE48 gneE46 gneE44 gneE42 gneE40 gneE38 gneE36 gneE34 gneE89 gneE22 gneE19 gneE20"/>
    </vehicle>
    <vehicle id="myflow1.5" type="bus" depart="201.67">
        <route edges="gneE52 gneE50 gneE48 gneE46 gneE44 gneE42 gneE40 gneE38 gneE36 gneE34 gneE89 gneE22 gneE19 gneE20"/>
    </vehicle>
    <vehicle id="myflow.4" type="bus" depart="238.38">
        <route edges="gneE0 gneE16 gneE21 gneE88 gneE33 gneE35 gneE37 gneE39 gneE41 gneE43 gneE45 gneE47 gneE49 gneE51"/>
    </vehicle>
    <vehicle id="myflow.5" type="bus" depart="345.65">
        <route edges="gneE0 gneE16 gneE21 gneE88 gneE33 gneE35 gneE37 gneE39 gneE41 gneE43 gneE45 gneE47 gneE49 gneE51"/>
    </vehicle>
    <vehicle id="myflow.6" type="bus" depart="352.32">
        <route edges="gneE0 gneE16 gneE21 gneE88 gneE33 gneE35 gneE37 gneE39 gneE41 gneE43 gneE45 gneE47 gneE49 gneE51"/>
    </vehicle>
    <vehicle id="myflow1.6" type="bus" depart="353.09">
        <route edges="gneE52 gneE50 gneE48 gneE46 gneE44 gneE42 gneE40 gneE38 gneE36 gneE34 gneE89 gneE22 gneE19 gneE20"/>
    </vehicle>
    <vehicle id="myflow1.7" type="bus" depart="363.29">
        <route edges="gneE52 gneE50 gneE48 gneE46 gneE44 gneE42 gneE40 gneE38 gneE36 gneE34 gneE89 gneE22 gneE19 gneE20"/>
    </vehicle>
    <vehicle id="myflow.7" type="bus" depart="381.92">
        <route edges="gneE0 gneE16 gneE21 gneE88 gneE33 gneE35 gneE37 gneE39 gneE41 gneE43 gneE45 gneE47 gneE49 gneE51"/>
    </vehicle>
    <vehicle id="myflow.8" type="bus" depart="400.80">
        <route edges="gneE0 gneE16 gneE21 gneE88 gneE33 gneE35 gneE37 gneE39 gneE41 gneE43 gneE45 gneE47 gneE49 gneE51"/>
    </vehicle>
    <vehicle id="myflow.9" type="bus" depart="401.49">
        <route edges="gneE0 gneE16 gneE21 gneE88 gneE33 gneE35 gneE37 gneE39 gneE41 gneE43 gneE45 gneE47 gneE49 gneE51"/>
    </vehicle>
    <vehicle id="myflow1.8" type="bus" depart="410.68">
        <route edges="gneE52 gneE50 gneE48 gneE46 gneE44 gneE42 gneE40 gneE38 gneE36 gneE34 gneE89 gneE22 gneE19 gneE20"/>
    </vehicle>
    <vehicle id="myflow1.9" type="bus" depart="423.68">
        <route edges="gneE52 gneE50 gneE48 gneE46 gneE44 gneE42 gneE40 gneE38 gneE36 gneE34 gneE89 gneE22 gneE19 gneE20"/>
    </vehicle>
    <vehicle id="myflow1.10" type="bus" depart="433.87">
        <route edges="gneE52 gneE50 gneE48 gneE46 gneE44 gneE42 gneE40 gneE38 gneE36 gneE34 gneE89 gneE22 gneE19 gneE20"/>
    </vehicle>
    <vehicle id="myflow.10" type="bus" depart="436.43">
        <route edges="gneE0 gneE16 gneE21 gneE88 gneE33 gneE35 gneE37 gneE39 gneE41 gneE43 gneE45 gneE47 gneE49 gneE51"/>
    </vehicle>
    <vehicle id="myflow1.11" type="bus" depart="448.25">
        <route edges="gneE52 gneE50 gneE48 gneE46 gneE44 gneE42 gneE40 gneE38 gneE36 gneE34 gneE89 gneE22 gneE19 gneE20"/>
    </vehicle>
    <vehicle id="myflow.11" type="bus" depart="476.94">
        <route edges="gneE0 gneE16 gneE21 gneE88 gneE33 gneE35 gneE37 gneE39 gneE41 gneE43 gneE45 gneE47 gneE49 gneE51"/>
    </vehicle>
    <vehicle id="myflow1.12" type="bus" depart="494.74">
        <route edges="gneE52 gneE50 gneE48 gneE46 gneE44 gneE42 gneE40 gneE38 gneE36 gneE34 gneE89 gneE22 gneE19 gneE20"/>
    </vehicle>
    <vehicle id="myflow2.0" type="bus" depart="500.79">
        <route edges="gneE64 gneE62 gneE85 gneE87 gneE71 gneE73 gneE76 gneE78 gneE80"/>
    </vehicle>
    <vehicle id="myflow2.1" type="bus" depart="513.56">
        <route edges="gneE64 gneE62 gneE85 gneE87 gneE71 gneE73 gneE76 gneE78 gneE80"/>
    </vehicle>
    <vehicle id="myflow3.0" type="bus" depart="516.72">
        <route edges="gneE81 gneE79 gneE77 gneE74 gneE72 gneE86 gneE84 gneE61 gneE63"/>
    </vehicle>
    <vehicle id="myflow2.2" type="bus" depart="527.48">
        <route edges="gneE64 gneE62 gneE85 gneE87 gneE71 gneE73 gneE76 gneE78 gneE80"/>
    </vehicle>
    <vehicle id="myflow.12" type="bus" depart="542.30">
        <route edges="gneE0 gneE16 gneE21 gneE88 gneE33 gneE35 gneE37 gneE39 gneE41 gneE43 gneE45 gneE47 gneE49 gneE51"/>
    </vehicle>
    <vehicle id="myflow3.1" type="bus" depart="547.01">
        <route edges="gneE81 gneE79 gneE77 gneE74 gneE72 gneE86 gneE84 gneE61 gneE63"/>
    </vehicle>
    <vehicle id="myflow1.13" type="bus" depart="555.59">
        <route edges="gneE52 gneE50 gneE48 gneE46 gneE44 gneE42 gneE40 gneE38 gneE36 gneE34 gneE89 gneE22 gneE19 gneE20"/>
    </vehicle>
    <vehicle id="myflow1.14" type="bus" depart="557.09">
        <route edges="gneE52 gneE50 gneE48 gneE46 gneE44 gneE42 gneE40 gneE38 gneE36 gneE34 gneE89 gneE22 gneE19 gneE20"/>
    </vehicle>
    <vehicle id="myflow3.2" type="bus" depart="589.60">
        <route edges="gneE81 gneE79 gneE77 gneE74 gneE72 gneE86 gneE84 gneE61 gneE63"/>
    </vehicle>
    <vehicle id="myflow.13" type="bus" depart="596.97">
        <route edges="gneE0 gneE16 gneE21 gneE88 gneE33 gneE35 gneE37 gneE39 gneE41 gneE43 gneE45 gneE47 gneE49 gneE51"/>
    </vehicle>
    <vehicle id="myflow1.15" type="bus" depart="597.95">
        <route edges="gneE52 gneE50 gneE48 gneE46 gneE44 gneE42 gneE40 gneE38 gneE36 gneE34 gneE89 gneE22 gneE19 gneE20"/>
    </vehicle>
    <vehicle id="myflow3.3" type="bus" depart="600.63">
        <route edges="gneE81 gneE79 gneE77 gneE74 gneE72 gneE86 gneE84 gneE61 gneE63"/>
    </vehicle>
    <vehicle id="myflow2.3" type="bus" depart="621.78">
        <route edges="gneE64 gneE62 gneE85 gneE87 gneE71 gneE73 gneE76 gneE78 gneE80"/>
    </vehicle>
    <vehicle id="myflow.14" type="bus" depart="628.79">
        <route edges="gneE0 gneE16 gneE21 gneE88 gneE33 gneE35 gneE37 gneE39 gneE41 gneE43 gneE45 gneE47 gneE49 gneE51"/>
    </vehicle>
    <vehicle id="myflow.15" type="bus" depart="654.29">
        <route edges="gneE0 gneE16 gneE21 gneE88 gneE33 gneE35 gneE37 gneE39 gneE41 gneE43 gneE45 gneE47 gneE49 gneE51"/>
    </vehicle>
    <vehicle id="myflow.16" type="bus" depart="666.67">
        <route edges="gneE0 gneE16 gneE21 gneE88 gneE33 gneE35 gneE37 gneE39 gneE41 gneE43 gneE45 gneE47 gneE49 gneE51"/>
    </vehicle>
    <vehicle id="myflow2.4" type="bus" depart="669.47">
        <route edges="gneE64 gneE62 gneE85 gneE87 gneE71 gneE73 gneE76 gneE78 gneE80"/>
    </vehicle>
    <vehicle id="myflow3.4" type="bus" depart="669.75">
        <route edges="gneE81 gneE79 gneE77 gneE74 gneE72 gneE86 gneE84 gneE61 gneE63"/>
    </vehicle>
    <vehicle id="myflow.17" type="bus" depart="674.42">
        <route edges="gneE0 gneE16 gneE21 gneE88 gneE33 gneE35 gneE37 gneE39 gneE41 gneE43 gneE45 gneE47 gneE49 gneE51"/>
    </vehicle>
    <vehicle id="myflow2.5" type="bus" depart="686.01">
        <route edges="gneE64 gneE62 gneE85 gneE87 gneE71 gneE73 gneE76 gneE78 gneE80"/>
    </vehicle>
    <vehicle id="myflow1.16" type="bus" depart="696.11">
        <route edges="gneE52 gneE50 gneE48 gneE46 gneE44 gneE42 gneE40 gneE38 gneE36 gneE34 gneE89 gneE22 gneE19 gneE20"/>
    </vehicle>
    <vehicle id="myflow3.5" type="bus" depart="696.41">
        <route edges="gneE81 gneE79 gneE77 gneE74 gneE72 gneE86 gneE84 gneE61 gneE63"/>
    </vehicle>
    <vehicle id="myflow2.6" type="bus" depart="707.72">
        <route edges="gneE64 gneE62 gneE85 gneE87 gneE71 gneE73 gneE76 gneE78 gneE80"/>
    </vehicle>
    <vehicle id="myflow3.6" type="bus" depart="709.51">
        <route edges="gneE81 gneE79 gneE77 gneE74 gneE72 gneE86 gneE84 gneE61 gneE63"/>
    </vehicle>
    <vehicle id="myflow2.7" type="bus" depart="712.57">
        <route edges="gneE64 gneE62 gneE85 gneE87 gneE71 gneE73 gneE76 gneE78 gneE80"/>
    </vehicle>
    <vehicle id="myflow.18" type="bus" depart="724.95">
        <route edges="gneE0 gneE16 gneE21 gneE88 gneE33 gneE35 gneE37 gneE39 gneE41 gneE43 gneE45 gneE47 gneE49 gneE51"/>
    </vehicle>
    <vehicle id="myflow.19" type="bus" depart="754.69">
        <route edges="gneE0 gneE16 gneE21 gneE88 gneE33 gneE35 gneE37 gneE39 gneE41 gneE43 gneE45 gneE47 gneE49 gneE51"/>
    </vehicle>
    <vehicle id="myflow.20" type="bus" depart="759.41">
        <route edges="gneE0 gneE16 gneE21 gneE88 gneE33 gneE35 gneE37 gneE39 gneE41 gneE43 gneE45 gneE47 gneE49 gneE51"/>
    </vehicle>
    <vehicle id="myflow.21" type="bus" depart="764.28">
        <route edges="gneE0 gneE16 gneE21 gneE88 gneE33 gneE35 gneE37 gneE39 gneE41 gneE43 gneE45 gneE47 gneE49 gneE51"/>
    </vehicle>
    <vehicle id="myflow.22" type="bus" depart="785.27">
        <route edges="gneE0 gneE16 gneE21 gneE88 gneE33 gneE35 gneE37 gneE39 gneE41 gneE43 gneE45 gneE47 gneE49 gneE51"/>
    </vehicle>
    <vehicle id="myflow1.17" type="bus" depart="790.50">
        <route edges="gneE52 gneE50 gneE48 gneE46 gneE44 gneE42 gneE40 gneE38 gneE36 gneE34 gneE89 gneE22 gneE19 gneE20"/>
    </vehicle>
    <vehicle id="myflow1.18" type="bus" depart="790.89">
        <route edges="gneE52 gneE50 gneE48 gneE46 gneE44 gneE42 gneE40 gneE38 gneE36 gneE34 gneE89 gneE22 gneE19 gneE20"/>
    </vehicle>
    <vehicle id="myflow2.8" type="bus" depart="819.61">
        <route edges="gneE64 gneE62 gneE85 gneE87 gneE71 gneE73 gneE76 gneE78 gneE80"/>
    </vehicle>
    <vehicle id="myflow.23" type="bus" depart="819.88">
        <route edges="gneE0 gneE16 gneE21 gneE88 gneE33 gneE35 gneE37 gneE39 gneE41 gneE43 gneE45 gneE47 gneE49 gneE51"/>
    </vehicle>
    <vehicle id="myflow3.7" type="bus" depart="822.82">
        <route edges="gneE81 gneE79 gneE77 gneE74 gneE72 gneE86 gneE84 gneE61 gneE63"/>
    </vehicle>
    <vehicle id="myflow2.9" type="bus" depart="825.69">
        <route edges="gneE64 gneE62 gneE85 gneE87 gneE71 gneE73 gneE76 gneE78 gneE80"/>
    </vehicle>
    <vehicle id="myflow1.19" type="bus" depart="833.34">
        <route edges="gneE52 gneE50 gneE48 gneE46 gneE44 gneE42 gneE40 gneE38 gneE36 gneE34 gneE89 gneE22 gneE19 gneE20"/>
    </vehicle>
    <vehicle id="myflow.24" type="bus" depart="842.52">
        <route edges="gneE0 gneE16 gneE21 gneE88 gneE33 gneE35 gneE37 gneE39 gneE41 gneE43 gneE45 gneE47 gneE49 gneE51"/>
    </vehicle>
    <vehicle id="myflow3.8" type="bus" depart="863.53">
        <route edges="gneE81 gneE79 gneE77 gneE74 gneE72 gneE86 gneE84 gneE61 gneE63"/>
    </vehicle>
    <vehicle id="myflow2.10" type="bus" depart="868.78">
        <route edges="gneE64 gneE62 gneE85 gneE87 gneE71 gneE73 gneE76 gneE78 gneE80"/>
    </vehicle>
    <vehicle id="myflow.25" type="bus" depart="869.60">
        <route edges="gneE0 gneE16 gneE21 gneE88 gneE33 gneE35 gneE37 gneE39 gneE41 gneE43 gneE45 gneE47 gneE49 gneE51"/>
    </vehicle>
    <vehicle id="myflow2.11" type="bus" depart="882.76">
        <route edges="gneE64 gneE62 gneE85 gneE87 gneE71 gneE73 gneE76 gneE78 gneE80"/>
    </vehicle>
    <vehicle id="myflow2.12" type="bus" depart="886.17">
        <route edges="gneE64 gneE62 gneE85 gneE87 gneE71 gneE73 gneE76 gneE78 gneE80"/>
    </vehicle>
    <vehicle id="myflow1.20" type="bus" depart="891.90">
        <route edges="gneE52 gneE50 gneE48 gneE46 gneE44 gneE42 gneE40 gneE38 gneE36 gneE34 gneE89 gneE22 gneE19 gneE20"/>
    </vehicle>
    <vehicle id="myflow3.9" type="bus" depart="897.95">
        <route edges="gneE81 gneE79 gneE77 gneE74 gneE72 gneE86 gneE84 gneE61 gneE63"/>
    </vehicle>
    <vehicle id="myflow2.13" type="bus" depart="901.16">
        <route edges="gneE64 gneE62 gneE85 gneE87 gneE71 gneE73 gneE76 gneE78 gneE80"/>
    </vehicle>
    <vehicle id="myflow2.14" type="bus" depart="907.58">
        <route edges="gneE64 gneE62 gneE85 gneE87 gneE71 gneE73 gneE76 gneE78 gneE80"/>
    </vehicle>
    <vehicle id="myflow.26" type="bus" depart="912.02">
        <route edges="gneE0 gneE16 gneE21 gneE88 gneE33 gneE35 gneE37 gneE39 gneE41 gneE43 gneE45 gneE47 gneE49 gneE51"/>
    </vehicle>
    <vehicle id="myflow2.15" type="bus" depart="917.29">
        <route edges="gneE64 gneE62 gneE85 gneE87 gneE71 gneE73 gneE76 gneE78 gneE80"/>
    </vehicle>
    <vehicle id="myflow3.10" type="bus" depart="925.96">
        <route edges="gneE81 gneE79 gneE77 gneE74 gneE72 gneE86 gneE84 gneE61 gneE63"/>
    </vehicle>
    <vehicle id="myflow1.21" type="bus" depart="927.91">
        <route edges="gneE52 gneE50 gneE48 gneE46 gneE44 gneE42 gneE40 gneE38 gneE36 gneE34 gneE89 gneE22 gneE19 gneE20"/>
    </vehicle>
    <vehicle id="myflow2.16" type="bus" depart="947.19">
        <route edges="gneE64 gneE62 gneE85 gneE87 gneE71 gneE73 gneE76 gneE78 gneE80"/>
    </vehicle>
    <vehicle id="myflow1.22" type="bus" depart="965.56">
        <route edges="gneE52 gneE50 gneE48 gneE46 gneE44 gneE42 gneE40 gneE38 gneE36 gneE34 gneE89 gneE22 gneE19 gneE20"/>
    </vehicle>
    <vehicle id="myflow1.23" type="bus" depart="972.03">
        <route edges="gneE52 gneE50 gneE48 gneE46 gneE44 gneE42 gneE40 gneE38 gneE36 gneE34 gneE89 gneE22 gneE19 gneE20"/>
    </vehicle>
    <vehicle id="myflow1.24" type="bus" depart="984.39">
        <route edges="gneE52 gneE50 gneE48 gneE46 gneE44 gneE42 gneE40 gneE38 gneE36 gneE34 gneE89 gneE22 gneE19 gneE20"/>
    </vehicle>
    <vehicle id="myflow3.11" type="bus" depart="991.59">
        <route edges="gneE81 gneE79 gneE77 gneE74 gneE72 gneE86 gneE84 gneE61 gneE63"/>
    </vehicle>
    <vehicle id="myflow.27" type="bus" depart="1006.15">
        <route edges="gneE0 gneE16 gneE21 gneE88 gneE33 gneE35 gneE37 gneE39 gneE41 gneE43 gneE45 gneE47 gneE49 gneE51"/>
    </vehicle>
    <vehicle id="myflow1.25" type="bus" depart="1034.54">
        <route edges="gneE52 gneE50 gneE48 gneE46 gneE44 gneE42 gneE40 gneE38 gneE36 gneE34 gneE89 gneE22 gneE19 gneE20"/>
    </vehicle>
    <vehicle id="myflow1.26" type="bus" depart="1038.84">
        <route edges="gneE52 gneE50 gneE48 gneE46 gneE44 gneE42 gneE40 gneE38 gneE36 gneE34 gneE89 gneE22 gneE19 gneE20"/>
    </vehicle>
    <vehicle id="myflow3.12" type="bus" depart="1058.98">
        <route edges="gneE81 gneE79 gneE77 gneE74 gneE72 gneE86 gneE84 gneE61 gneE63"/>
    </vehicle>
    <vehicle id="myflow3.13" type="bus" depart="1081.56">
        <route edges="gneE81 gneE79 gneE77 gneE74 gneE72 gneE86 gneE84 gneE61 gneE63"/>
    </vehicle>
    <vehicle id="myflow.28" type="bus" depart="1086.27">
        <route edges="gneE0 gneE16 gneE21 gneE88 gneE33 gneE35 gneE37 gneE39 gneE41 gneE43 gneE45 gneE47 gneE49 gneE51"/>
    </vehicle>
    <vehicle id="myflow2.17" type="bus" depart="1087.90">
        <route edges="gneE64 gneE62 gneE85 gneE87 gneE71 gneE73 gneE76 gneE78 gneE80"/>
    </vehicle>
    <vehicle id="myflow2.18" type="bus" depart="1117.57">
        <route edges="gneE64 gneE62 gneE85 gneE87 gneE71 gneE73 gneE76 gneE78 gneE80"/>
    </vehicle>
    <vehicle id="myflow1.27" type="bus" depart="1118.06">
        <route edges="gneE52 gneE50 gneE48 gneE46 gneE44 gneE42 gneE40 gneE38 gneE36 gneE34 gneE89 gneE22 gneE19 gneE20"/>
    </vehicle>
    <vehicle id="myflow2.19" type="bus" depart="1120.30">
        <route edges="gneE64 gneE62 gneE85 gneE87 gneE71 gneE73 gneE76 gneE78 gneE80"/>
    </vehicle>
    <vehicle id="myflow3.14" type="bus" depart="1127.48">
        <route edges="gneE81 gneE79 gneE77 gneE74 gneE72 gneE86 gneE84 gneE61 gneE63"/>
    </vehicle>
    <vehicle id="myflow1.28" type="bus" depart="1130.77">
        <route edges="gneE52 gneE50 gneE48 gneE46 gneE44 gneE42 gneE40 gneE38 gneE36 gneE34 gneE89 gneE22 gneE19 gneE20"/>
    </vehicle>
    <vehicle id="myflow1.29" type="bus" depart="1132.18">
        <route edges="gneE52 gneE50 gneE48 gneE46 gneE44 gneE42 gneE40 gneE38 gneE36 gneE34 gneE89 gneE22 gneE19 gneE20"/>
    </vehicle>
    <vehicle id="myflow.29" type="bus" depart="1146.71">
        <route edges="gneE0 gneE16 gneE21 gneE88 gneE33 gneE35 gneE37 gneE39 gneE41 gneE43 gneE45 gneE47 gneE49 gneE51"/>
    </vehicle>
    <vehicle id="myflow1.30" type="bus" depart="1156.41">
        <route edges="gneE52 gneE50 gneE48 gneE46 gneE44 gneE42 gneE40 gneE38 gneE36 gneE34 gneE89 gneE22 gneE19 gneE20"/>
    </vehicle>
    <vehicle id="myflow.30" type="bus" depart="1164.16">
        <route edges="gneE0 gneE16 gneE21 gneE88 gneE33 gneE35 gneE37 gneE39 gneE41 gneE43 gneE45 gneE47 gneE49 gneE51"/>
    </vehicle>
    <vehicle id="myflow2.20" type="bus" depart="1169.55">
        <route edges="gneE64 gneE62 gneE85 gneE87 gneE71 gneE73 gneE76 gneE78 gneE80"/>
    </vehicle>
    <vehicle id="myflow1.31" type="bus" depart="1177.31">
        <route edges="gneE52 gneE50 gneE48 gneE46 gneE44 gneE42 gneE40 gneE38 gneE36 gneE34 gneE89 gneE22 gneE19 gneE20"/>
    </vehicle>
    <vehicle id="myflow3.15" type="bus" depart="1188.48">
        <route edges="gneE81 gneE79 gneE77 gneE74 gneE72 gneE86 gneE84 gneE61 gneE63"/>
    </vehicle>
    <vehicle id="myflow2.21" type="bus" depart="1202.02">
        <route edges="gneE64 gneE62 gneE85 gneE87 gneE71 gneE73 gneE76 gneE78 gneE80"/>
    </vehicle>
    <vehicle id="myflow.31" type="bus" depart="1217.35">
        <route edges="gneE0 gneE16 gneE21 gneE88 gneE33 gneE35 gneE37 gneE39 gneE41 gneE43 gneE45 gneE47 gneE49 gneE51"/>
    </vehicle>
    <vehicle id="myflow2.22" type="bus" depart="1265.39">
        <route edges="gneE64 gneE62 gneE85 gneE87 gneE71 gneE73 gneE76 gneE78 gneE80"/>
    </vehicle>
    <vehicle id="myflow1.32" type="bus" depart="1282.40">
        <route edges="gneE52 gneE50 gneE48 gneE46 gneE44 gneE42 gneE40 gneE38 gneE36 gneE34 gneE89 gneE22 gneE19 gneE20"/>
    </vehicle>
    <vehicle id="myflow1.33" type="bus" depart="1282.42">
        <route edges="gneE52 gneE50 gneE48 gneE46 gneE44 gneE42 gneE40 gneE38 gneE36 gneE34 gneE89 gneE22 gneE19 gneE20"/>
    </vehicle>
    <vehicle id="myflow2.23" type="bus" depart="1282.98">
        <route edges="gneE64 gneE62 gneE85 gneE87 gneE71 gneE73 gneE76 gneE78 gneE80"/>
    </vehicle>
    <vehicle id="myflow.32" type="bus" depart="1283.82">
        <route edges="gneE0 gneE16 gneE21 gneE88 gneE33 gneE35 gneE37 gneE39 gneE41 gneE43 gneE45 gneE47 gneE49 gneE51"/>
    </vehicle>
    <vehicle id="myflow3.16" type="bus" depart="1287.08">
        <route edges="gneE81 gneE79 gneE77 gneE74 gneE72 gneE86 gneE84 gneE61 gneE63"/>
    </vehicle>
    <vehicle id="myflow1.34" type="bus" depart="1302.21">
        <route edges="gneE52 gneE50 gneE48 gneE46 gneE44 gneE42 gneE40 gneE38 gneE36 gneE34 gneE89 gneE22 gneE19 gneE20"/>
    </vehicle>
    <vehicle id="myflow3.17" type="bus" depart="1359.60">
        <route edges="gneE81 gneE79 gneE77 gneE74 gneE72 gneE86 gneE84 gneE61 gneE63"/>
    </vehicle>
    <vehicle id="myflow.33" type="bus" depart="1372.68">
        <route edges="gneE0 gneE16 gneE21 gneE88 gneE33 gneE35 gneE37 gneE39 gneE41 gneE43 gneE45 gneE47 gneE49 gneE51"/>
    </vehicle>
    <vehicle id="myflow3.18" type="bus" depart="1428.90">
        <route edges="gneE81 gneE79 gneE77 gneE74 gneE72 gneE86 gneE84 gneE61 gneE63"/>
    </vehicle>
    <vehicle id="myflow.34" type="bus" depart="1446.55">
        <route edges="gneE0 gneE16 gneE21 gneE88 gneE33 gneE35 gneE37 gneE39 gneE41 gneE43 gneE45 gneE47 gneE49 gneE51"/>
    </vehicle>
    <vehicle id="myflow1.35" type="bus" depart="1448.42">
        <route edges="gneE52 gneE50 gneE48 gneE46 gneE44 gneE42 gneE40 gneE38 gneE36 gneE34 gneE89 gneE22 gneE19 gneE20"/>
    </vehicle>
    <vehicle id="myflow3.19" type="bus" depart="1457.25">
        <route edges="gneE81 gneE79 gneE77 gneE74 gneE72 gneE86 gneE84 gneE61 gneE63"/>
    </vehicle>
    <vehicle id="myflow.35" type="bus" depart="1479.95">
        <route edges="gneE0 gneE16 gneE21 gneE88 gneE33 gneE35 gneE37 gneE39 gneE41 gneE43 gneE45 gneE47 gneE49 gneE51"/>
    </vehicle>
    <vehicle id="myflow2.24" type="bus" depart="1497.77">
        <route edges="gneE64 gneE62 gneE85 gneE87 gneE71 gneE73 gneE76 gneE78 gneE80"/>
    </vehicle>
    <vehicle id="myflow.36" type="bus" depart="1517.64">
        <route edges="gneE0 gneE16 gneE21 gneE88 gneE33 gneE35 gneE37 gneE39 gneE41 gneE43 gneE45 gneE47 gneE49 gneE51"/>
    </vehicle>
    <vehicle id="myflow2.25" type="bus" depart="1549.14">
        <route edges="gneE64 gneE62 gneE85 gneE87 gneE71 gneE73 gneE76 gneE78 gneE80"/>
    </vehicle>
    <vehicle id="myflow2.26" type="bus" depart="1554.94">
        <route edges="gneE64 gneE62 gneE85 gneE87 gneE71 gneE73 gneE76 gneE78 gneE80"/>
    </vehicle>
    <vehicle id="myflow.37" type="bus" depart="1580.77">
        <route edges="gneE0 gneE16 gneE21 gneE88 gneE33 gneE35 gneE37 gneE39 gneE41 gneE43 gneE45 gneE47 gneE49 gneE51"/>
    </vehicle>
    <vehicle id="myflow.38" type="bus" depart="1583.17">
        <route edges="gneE0 gneE16 gneE21 gneE88 gneE33 gneE35 gneE37 gneE39 gneE41 gneE43 gneE45 gneE47 gneE49 gneE51"/>
    </vehicle>
    <vehicle id="myflow3.20" type="bus" depart="1586.62">
        <route edges="gneE81 gneE79 gneE77 gneE74 gneE72 gneE86 gneE84 gneE61 gneE63"/>
    </vehicle>
    <vehicle id="myflow3.21" type="bus" depart="1588.56">
        <route edges="gneE81 gneE79 gneE77 gneE74 gneE72 gneE86 gneE84 gneE61 gneE63"/>
    </vehicle>
    <vehicle id="myflow2.27" type="bus" depart="1590.73">
        <route edges="gneE64 gneE62 gneE85 gneE87 gneE71 gneE73 gneE76 gneE78 gneE80"/>
    </vehicle>
    <vehicle id="myflow.39" type="bus" depart="1600.23">
        <route edges="gneE0 gneE16 gneE21 gneE88 gneE33 gneE35 gneE37 gneE39 gneE41 gneE43 gneE45 gneE47 gneE49 gneE51"/>
    </vehicle>
    <vehicle id="myflow2.28" type="bus" depart="1616.25">
        <route edges="gneE64 gneE62 gneE85 gneE87 gneE71 gneE73 gneE76 gneE78 gneE80"/>
    </vehicle>
    <vehicle id="myflow.40" type="bus" depart="1641.35">
        <route edges="gneE0 gneE16 gneE21 gneE88 gneE33 gneE35 gneE37 gneE39 gneE41 gneE43 gneE45 gneE47 gneE49 gneE51"/>
    </vehicle>
    <vehicle id="myflow.41" type="bus" depart="1648.05">
        <route edges="gneE0 gneE16 gneE21 gneE88 gneE33 gneE35 gneE37 gneE39 gneE41 gneE43 gneE45 gneE47 gneE49 gneE51"/>
    </vehicle>
    <vehicle id="myflow.42" type="bus" depart="1650.72">
        <route edges="gneE0 gneE16 gneE21 gneE88 gneE33 gneE35 gneE37 gneE39 gneE41 gneE43 gneE45 gneE47 gneE49 gneE51"/>
    </vehicle>
    <vehicle id="myflow.43" type="bus" depart="1651.42">
        <route edges="gneE0 gneE16 gneE21 gneE88 gneE33 gneE35 gneE37 gneE39 gneE41 gneE43 gneE45 gneE47 gneE49 gneE51"/>
    </vehicle>
    <vehicle id="myflow1.36" type="bus" depart="1654.56">
        <route edges="gneE52 gneE50 gneE48 gneE46 gneE44 gneE42 gneE40 gneE38 gneE36 gneE34 gneE89 gneE22 gneE19 gneE20"/>
    </vehicle>
    <vehicle id="myflow2.29" type="bus" depart="1655.39">
        <route edges="gneE64 gneE62 gneE85 gneE87 gneE71 gneE73 gneE76 gneE78 gneE80"/>
    </vehicle>
    <vehicle id="myflow3.22" type="bus" depart="1664.54">
        <route edges="gneE81 gneE79 gneE77 gneE74 gneE72 gneE86 gneE84 gneE61 gneE63"/>
    </vehicle>
    <vehicle id="myflow1.37" type="bus" depart="1669.56">
        <route edges="gneE52 gneE50 gneE48 gneE46 gneE44 gneE42 gneE40 gneE38 gneE36 gneE34 gneE89 gneE22 gneE19 gneE20"/>
    </vehicle>
    <vehicle id="myflow.44" type="bus" depart="1672.50">
        <route edges="gneE0 gneE16 gneE21 gneE88 gneE33 gneE35 gneE37 gneE39 gneE41 gneE43 gneE45 gneE47 gneE49 gneE51"/>
    </vehicle>
    <vehicle id="myflow1.38" type="bus" depart="1684.20">
        <route edges="gneE52 gneE50 gneE48 gneE46 gneE44 gneE42 gneE40 gneE38 gneE36 gneE34 gneE89 gneE22 gneE19 gneE20"/>
    </vehicle>
    <vehicle id="myflow2.30" type="bus" depart="1684.71">
        <route edges="gneE64 gneE62 gneE85 gneE87 gneE71 gneE73 gneE76 gneE78 gneE80"/>
    </vehicle>
    <vehicle id="myflow.45" type="bus" depart="1720.77">
        <route edges="gneE0 gneE16 gneE21 gneE88 gneE33 gneE35 gneE37 gneE39 gneE41 gneE43 gneE45 gneE47 gneE49 gneE51"/>
    </vehicle>
    <vehicle id="myflow3.23" type="bus" depart="1722.05">
        <route edges="gneE81 gneE79 gneE77 gneE74 gneE72 gneE86 gneE84 gneE61 gneE63"/>
    </vehicle>
    <vehicle id="myflow3.24" type="bus" depart="1723.00">
        <route edges="gneE81 gneE79 gneE77 gneE74 gneE72 gneE86 gneE84 gneE61 gneE63"/>
    </vehicle>
    <vehicle id="myflow2.31" type="bus" depart="1729.13">
        <route edges="gneE64 gneE62 gneE85 gneE87 gneE71 gneE73 gneE76 gneE78 gneE80"/>
    </vehicle>
    <vehicle id="myflow3.25" type="bus" depart="1729.93">
        <route edges="gneE81 gneE79 gneE77 gneE74 gneE72 gneE86 gneE84 gneE61 gneE63"/>
    </vehicle>
    <vehicle id="myflow2.32" type="bus" depart="1738.90">
        <route edges="gneE64 gneE62 gneE85 gneE87 gneE71 gneE73 gneE76 gneE78 gneE80"/>
    </vehicle>
    <vehicle id="myflow1.39" type="bus" depart="1746.56">
        <route edges="gneE52 gneE50 gneE48 gneE46 gneE44 gneE42 gneE40 gneE38 gneE36 gneE34 gneE89 gneE22 gneE19 gneE20"/>
    </vehicle>
    <vehicle id="myflow3.26" type="bus" depart="1747.62">
        <route edges="gneE81 gneE79 gneE77 gneE74 gneE72 gneE86 gneE84 gneE61 gneE63"/>
    </vehicle>
    <vehicle id="myflow1.40" type="bus" depart="1752.65">
        <route edges="gneE52 gneE50 gneE48 gneE46 gneE44 gneE42 gneE40 gneE38 gneE36 gneE34 gneE89 gneE22 gneE19 gneE20"/>
    </vehicle>
    <vehicle id="myflow2.33" type="bus" depart="1756.12">
        <route edges="gneE64 gneE62 gneE85 gneE87 gneE71 gneE73 gneE76 gneE78 gneE80"/>
    </vehicle>
    <vehicle id="myflow1.41" type="bus" depart="1762.81">
        <route edges="gneE52 gneE50 gneE48 gneE46 gneE44 gneE42 gneE40 gneE38 gneE36 gneE34 gneE89 gneE22 gneE19 gneE20"/>
    </vehicle>
    <vehicle id="myflow1.42" type="bus" depart="1763.21">
        <route edges="gneE52 gneE50 gneE48 gneE46 gneE44 gneE42 gneE40 gneE38 gneE36 gneE34 gneE89 gneE22 gneE19 gneE20"/>
    </vehicle>
    <vehicle id="myflow3.27" type="bus" depart="1766.86">
        <route edges="gneE81 gneE79 gneE77 gneE74 gneE72 gneE86 gneE84 gneE61 gneE63"/>
    </vehicle>
    <vehicle id="myflow3.28" type="bus" depart="1769.21">
        <route edges="gneE81 gneE79 gneE77 gneE74 gneE72 gneE86 gneE84 gneE61 gneE63"/>
    </vehicle>
    <vehicle id="myflow2.34" type="bus" depart="1784.46">
        <route edges="gneE64 gneE62 gneE85 gneE87 gneE71 gneE73 gneE76 gneE78 gneE80"/>
    </vehicle>
    <vehicle id="myflow3.29" type="bus" depart="1787.14">
        <route edges="gneE81 gneE79 gneE77 gneE74 gneE72 gneE86 gneE84 gneE61 gneE63"/>
    </vehicle>
    <vehicle id="myflow3.30" type="bus" depart="1787.42">
        <route edges="gneE81 gneE79 gneE77 gneE74 gneE72 gneE86 gneE84 gneE61 gneE63"/>
    </vehicle>
    <vType id="motorcycle" length="2.03" minGap="0.50" vClass="motorcycle" width="0.74" height="1.15" latAlignment="right" lcPushy="1"/>
    <vehicle id="myflow34.0" type="motorcycle" depart="1.83">
        <route edges="gneE52 gneE50 gneE48 gneE46 gneE44 gneE42 gneE40 gneE39 32579063#0 32579063#1 32579063#2 32579063#3 32579063#4 32579063#5 32579063#6 32579063#7 32579063#8 32579063#9 32579063#10 32579063#11 32579063#12 -32587322#6 -32587322#5 -32587322#4 -32587322#3 gneE76 gneE78 gneE80"/>
    </vehicle>
    <vehicle id="myflow25.0" type="motorcycle" depart="2.75">
        <route edges="gneE52 gneE50 gneE48 gneE46 gneE44 gneE42 gneE40 gneE38 gneE36 gneE34 gneE89 gneE22 gneE19 gneE20"/>
    </vehicle>
    <vehicle id="myflow10.0" type="bus" depart="2.83">
        <route edges="gneE52 gneE50 gneE48 gneE46 gneE44 gneE42 32579063#0 32579063#1 32579063#2 32579063#3 32579063#4 32579063#5 32579063#6 32579063#7 32579063#8 32579063#9 32579063#10 32579063#11 32579063#12 -32587322#6 -32587322#5 -32587322#4 -32587322#3 gneE76 gneE78 gneE80"/>
    </vehicle>
    <vehicle id="myflow25.1" type="motorcycle" depart="4.77">
        <route edges="gneE52 gneE50 gneE48 gneE46 gneE44 gneE42 gneE40 gneE38 gneE36 gneE34 gneE89 gneE22 gneE19 gneE20"/>