<?xml version="1.0" encoding="UTF-8"?>

<!-- generated on Wed Mar 20 10:36:23 2019 by Eclipse SUMO duarouter Version 1.1.0
<configuration xmlns:xsi="http://www.w3.org/2001/XMLSchema-instance" xsi:noNamespaceSchemaLocation="http://sumo.dlr.de/xsd/duarouterConfiguration.xsd">

    <input>
        <net-file value="net.net.xml"/>
        <route-files value="result.rou.xml"/>
    </input>

    <output>
        <output-file value="myroutes.rou.xml"/>
        <alternatives-output value="myroutes.rou.alt.xml"/>
    </output>

    <processing>
        <randomize-flows value="true"/>
    </processing>

</configuration>
-->

<routes xmlns:xsi="http://www.w3.org/2001/XMLSchema-instance" xsi:noNamespaceSchemaLocation="http://sumo.dlr.de/xsd/routes_file.xsd">
    <vType id="bus" length="9.44" minGap="2.00" vClass="bus" guiShape="bus" width="2.45" height="3.10" latAlignment="left" lcPushy="1"/>
    <vehicle id="myflow.0" type="bus" depart="9.74">
        <route edges="gneE0 gneE16 gneE21 gneE88 gneE33 gneE35 gneE37 gneE39 gneE41 gneE43 gneE45 gneE47 gneE49 gneE51"/>
    </vehicle>
    <vehicle id="myflow1.0" type="bus" depart="18.13">
        <route edges="gneE52 gneE50 gneE48 gneE46 gneE44 gneE42 gneE40 gneE38 gneE36 gneE34 gneE89 gneE22 gneE19 gneE20"/>
    </vehicle>
    <vehicle id="myflow.1" type="bus" depart="18.39">
        <route edges="gneE0 gneE16 gneE21 gneE88 gneE33 gneE35 gneE37 gneE39 gneE41 gneE43 gneE45 gneE47 gneE49 gneE51"/>
    </vehicle>
    <vehicle id="myflow1.1" type="bus" depart="19.60">
        <route edges="gneE52 gneE50 gneE48 gneE46 gneE44 gneE42 gneE40 gneE38 gneE36 gneE34 gneE89 gneE22 gneE19 gneE20"/>
    </vehicle>
    <vehicle id="myflow1.2" type="bus" depart="25.67">
        <route edges="gneE52 gneE50 gneE48 gneE46 gneE44 gneE42 gneE40 gneE38 gneE36 gneE34 gneE89 gneE22 gneE19 gneE20"/>
    </vehicle>
    <vehicle id="myflow1.3" type="bus" depart="33.65">
        <route edges="gneE52 gneE50 gneE48 gneE46 gneE44 gneE42 gneE40 gneE38 gneE36 gneE34 gneE89 gneE22 gneE19 gneE20"/>
    </vehicle>
    <vehicle id="myflow1.4" type="bus" depart="35.86">
        <route edges="gneE52 gneE50 gneE48 gneE46 gneE44 gneE42 gneE40 gneE38 gneE36 gneE34 gneE89 gneE22 gneE19 gneE20"/>
    </vehicle>
    <vehicle id="myflow.2" type="bus" depart="37.69">
        <route edges="gneE0 gneE16 gneE21 gneE88 gneE33 gneE35 gneE37 gneE39 gneE41 gneE43 gneE45 gneE47 gneE49 gneE51"/>
    </vehicle>
    <vehicle id="myflow.3" type="bus" depart="52.36">
        <route edges="gneE0 gneE16 gneE21 gneE88 gneE33 gneE35 gneE37 gneE39 gneE41 gneE43 gneE45 gneE47 gneE49 gneE51"/>
    </vehicle>
    <vehicle id="myflow.4" type="bus" depart="55.65">
        <route edges="gneE0 gneE16 gneE21 gneE88 gneE33 gneE35 gneE37 gneE39 gneE41 gneE43 gneE45 gneE47 gneE49 gneE51"/>
    </vehicle>
    <vehicle id="myflow1.5" type="bus" depart="69.48">
        <route edges="gneE52 gneE50 gneE48 gneE46 gneE44 gneE42 gneE40 gneE38 gneE36 gneE34 gneE89 gneE22 gneE19 gneE20"/>
    </vehicle>
    <vehicle id="myflow1.6" type="bus" depart="98.13">
        <route edges="gneE52 gneE50 gneE48 gneE46 gneE44 gneE42 gneE40 gneE38 gneE36 gneE34 gneE89 gneE22 gneE19 gneE20"/>
    </vehicle>
    <vehicle id="myflow.5" type="bus" depart="115.58">
        <route edges="gneE0 gneE16 gneE21 gneE88 gneE33 gneE35 gneE37 gneE39 gneE41 gneE43 gneE45 gneE47 gneE49 gneE51"/>
    </vehicle>
    <vehicle id="myflow1.7" type="bus" depart="142.39">
        <route edges="gneE52 gneE50 gneE48 gneE46 gneE44 gneE42 gneE40 gneE38 gneE36 gneE34 gneE89 gneE22 gneE19 gneE20"/>
    </vehicle>
    <vehicle id="myflow1.8" type="bus" depart="151.18">
        <route edges="gneE52 gneE50 gneE48 gneE46 gneE44 gneE42 gneE40 gneE38 gneE36 gneE34 gneE89 gneE22 gneE19 gneE20"/>
    </vehicle>
    <vehicle id="myflow.6" type="bus" depart="162.06">
        <route edges="gneE0 gneE16 gneE21 gneE88 gneE33 gneE35 gneE37 gneE39 gneE41 gneE43 gneE45 gneE47 gneE49 gneE51"/>
    </vehicle>
    <vehicle id="myflow1.9" type="bus" depart="163.02">
        <route edges="gneE52 gneE50 gneE48 gneE46 gneE44 gneE42 gneE40 gneE38 gneE36 gneE34 gneE89 gneE22 gneE19 gneE20"/>
    </vehicle>
    <vehicle id="myflow1.10" type="bus" depart="168.77">
        <route edges="gneE52 gneE50 gneE48 gneE46 gneE44 gneE42 gneE40 gneE38 gneE36 gneE34 gneE89 gneE22 gneE19 gneE20"/>
    </vehicle>
    <vehicle id="myflow.7" type="bus" depart="203.31">
        <route edges="gneE0 gneE16 gneE21 gneE88 gneE33 gneE35 gneE37 gneE39 gneE41 gneE43 gneE45 gneE47 gneE49 gneE51"/>
    </vehicle>
    <vehicle id="myflow1.11" type="bus" depart="216.11">
        <route edges="gneE52 gneE50 gneE48 gneE46 gneE44 gneE42 gneE40 gneE38 gneE36 gneE34 gneE89 gneE22 gneE19 gneE20"/>
    </vehicle>
    <vehicle id="myflow1.12" type="bus" depart="217.72">
        <route edges="gneE52 gneE50 gneE48 gneE46 gneE44 gneE42 gneE40 gneE38 gneE36 gneE34 gneE89 gneE22 gneE19 gneE20"/>
    </vehicle>
    <vehicle id="myflow1.13" type="bus" depart="221.44">
        <route edges="gneE52 gneE50 gneE48 gneE46 gneE44 gneE42 gneE40 gneE38 gneE36 gneE34 gneE89 gneE22 gneE19 gneE20"/>
    </vehicle>
    <vehicle id="myflow1.14" type="bus" depart="233.84">
        <route edges="gneE52 gneE50 gneE48 gneE46 gneE44 gneE42 gneE40 gneE38 gneE36 gneE34 gneE89 gneE22 gneE19 gneE20"/>
    </vehicle>
    <vehicle id="myflow.8" type="bus" depart="235.24">
        <route edges="gneE0 gneE16 gneE21 gneE88 gneE33 gneE35 gneE37 gneE39 gneE41 gneE43 gneE45 gneE47 gneE49 gneE51"/>
    </vehicle>
    <vehicle id="myflow1.15" type="bus" depart="235.96">
        <route edges="gneE52 gneE50 gneE48 gneE46 gneE44 gneE42 gneE40 gneE38 gneE36 gneE34 gneE89 gneE22 gneE19 gneE20"/>
    </vehicle>
    <vehicle id="myflow1.16" type="bus" depart="238.38">
        <route edges="gneE52 gneE50 gneE48 gneE46 gneE44 gneE42 gneE40 gneE38 gneE36 gneE34 gneE89 gneE22 gneE19 gneE20"/>
    </vehicle>
    <vehicle id="myflow.9" type="bus" depart="297.49">
        <route edges="gneE0 gneE16 gneE21 gneE88 gneE33 gneE35 gneE37 gneE39 gneE41 gneE43 gneE45 gneE47 gneE49 gneE51"/>
    </vehicle>
    <vehicle id="myflow1.17" type="bus" depart="305.35">
        <route edges="gneE52 gneE50 gneE48 gneE46 gneE44 gneE42 gneE40 gneE38 gneE36 gneE34 gneE89 gneE22 gneE19 gneE20"/>
    </vehicle>
    <vehicle id="myflow.10" type="bus" depart="318.99">
        <route edges="gneE0 gneE16 gneE21 gneE88 gneE33 gneE35 gneE37 gneE39 gneE41 gneE43 gneE45 gneE47 gneE49 gneE51"/>
    </vehicle>
    <vehicle id="myflow.11" type="bus" depart="324.10">
        <route edges="gneE0 gneE16 gneE21 gneE88 gneE33 gneE35 gneE37 gneE39 gneE41 gneE43 gneE45 gneE47 gneE49 gneE51"/>
    </vehicle>
    <vehicle id="myflow1.18" type="bus" depart="339.17">
        <route edges="gneE52 gneE50 gneE48 gneE46 gneE44 gneE42 gneE40 gneE38 gneE36 gneE34 gneE89 gneE22 gneE19 gneE20"/>
    </vehicle>
    <vehicle id="myflow1.19" type="bus" depart="345.65">
        <route edges="gneE52 gneE50 gneE48 gneE46 gneE44 gneE42 gneE40 gneE38 gneE36 gneE34 gneE89 gneE22 gneE19 gneE20"/>
    </vehicle>
    <vehicle id="myflow1.20" type="bus" depart="352.32">
        <route edges="gneE52 gneE50 gneE48 gneE46 gneE44 gneE42 gneE40 gneE38 gneE36 gneE34 gneE89 gneE22 gneE19 gneE20"/>
    </vehicle>
    <vehicle id="myflow.12" type="bus" depart="381.92">
        <route edges="gneE0 gneE16 gneE21 gneE88 gneE33 gneE35 gneE37 gneE39 gneE41 gneE43 gneE45 gneE47 gneE49 gneE51"/>
    </vehicle>
    <vehicle id="myflow.13" type="bus" depart="390.93">
        <route edges="gneE0 gneE16 gneE21 gneE88 gneE33 gneE35 gneE37 gneE39 gneE41 gneE43 gneE45 gneE47 gneE49 gneE51"/>
    </vehicle>
    <vehicle id="myflow1.21" type="bus" depart="397.98">
        <route edges="gneE52 gneE50 gneE48 gneE46 gneE44 gneE42 gneE40 gneE38 gneE36 gneE34 gneE89 gneE22 gneE19 gneE20"/>
    </vehicle>
    <vehicle id="myflow.14" type="bus" depart="400.80">
        <route edges="gneE0 gneE16 gneE21 gneE88 gneE33 gneE35 gneE37 gneE39 gneE41 gneE43 gneE45 gneE47 gneE49 gneE51"/>
    </vehicle>
    <vehicle id="myflow.15" type="bus" depart="401.49">
        <route edges="gneE0 gneE16 gneE21 gneE88 gneE33 gneE35 gneE37 gneE39 gneE41 gneE43 gneE45 gneE47 gneE49 gneE51"/>
    </vehicle>
    <vehicle id="myflow.16" type="bus" depart="410.45">
        <route edges="gneE0 gneE16 gneE21 gneE88 gneE33 gneE35 gneE37 gneE39 gneE41 gneE43 gneE45 gneE47 gneE49 gneE51"/>
    </vehicle>
    <vehicle id="myflow.17" type="bus" depart="420.07">
        <route edges="gneE0 gneE16 gneE21 gneE88 gneE33 gneE35 gneE37 gneE39 gneE41 gneE43 gneE45 gneE47 gneE49 gneE51"/>
    </vehicle>
    <vehicle id="myflow.18" type="bus" depart="431.37">
        <route edges="gneE0 gneE16 gneE21 gneE88 gneE33 gneE35 gneE37 gneE39 gneE41 gneE43 gneE45 gneE47 gneE49 gneE51"/>
    </vehicle>
    <vehicle id="myflow1.22" type="bus" depart="433.87">
        <route edges="gneE52 gneE50 gneE48 gneE46 gneE44 gneE42 gneE40 gneE38 gneE36 gneE34 gneE89 gneE22 gneE19 gneE20"/>
    </vehicle>
    <vehicle id="myflow1.23" type="bus" depart="436.43">
        <route edges="gneE52 gneE50 gneE48 gneE46 gneE44 gneE42 gneE40 gneE38 gneE36 gneE34 gneE89 gneE22 gneE19 gneE20"/>
    </vehicle>
    <vehicle id="myflow.19" type="bus" depart="469.07">
        <route edges="gneE0 gneE16 gneE21 gneE88 gneE33 gneE35 gneE37 gneE39 gneE41 gneE43 gneE45 gneE47 gneE49 gneE51"/>
    </vehicle>
    <vehicle id="myflow.20" type="bus" depart="476.94">
        <route edges="gneE0 gneE16 gneE21 gneE88 gneE33 gneE35 gneE37 gneE39 gneE41 gneE43 gneE45 gneE47 gneE49 gneE51"/>
    </vehicle>
    <vehicle id="myflow.21" type="bus" depart="477.63">
        <route edges="gneE0 gneE16 gneE21 gneE88 gneE33 gneE35 gneE37 gneE39 gneE41 gneE43 gneE45 gneE47 gneE49 gneE51"/>
    </vehicle>
    <vehicle id="myflow.22" type="bus" depart="487.56">
        <route edges="gneE0 gneE16 gneE21 gneE88 gneE33 gneE35 gneE37 gneE39 gneE41 gneE43 gneE45 gneE47 gneE49 gneE51"/>
    </vehicle>
    <vehicle id="myflow3.0" type="bus" depart="500.79">
        <route edges="gneE81 gneE79 gneE77 gneE74 gneE72 gneE86 gneE84 gneE61 gneE63"/>
    </vehicle>
    <vehicle id="myflow2.0" type="bus" depart="507.38">
        <route edges="gneE64 gneE62 gneE85 gneE87 gneE71 gneE73 gneE76 gneE78 gneE80"/>
    </vehicle>
    <vehicle id="myflow3.1" type="bus" depart="513.56">
        <route edges="gneE81 gneE79 gneE77 gneE74 gneE72 gneE86 gneE84 gneE61 gneE63"/>
    </vehicle>
    <vehicle id="myflow3.2" type="bus" depart="518.68">
        <route edges="gneE81 gneE79 gneE77 gneE74 gneE72 gneE86 gneE84 gneE61 gneE63"/>
    </vehicle>
    <vehicle id="myflow3.3" type="bus" depart="527.48">
        <route edges="gneE81 gneE79 gneE77 gneE74 gneE72 gneE86 gneE84 gneE61 gneE63"/>
    </vehicle>
    <vehicle id="myflow.23" type="bus" depart="532.20">
        <route edges="gneE0 gneE16 gneE21 gneE88 gneE33 gneE35 gneE37 gneE39 gneE41 gneE43 gneE45 gneE47 gneE49 gneE51"/>
    </vehicle>
    <vehicle id="myflow1.24" type="bus" depart="534.60">
        <route edges="gneE52 gneE50 gneE48 gneE46 gneE44 gneE42 gneE40 gneE38 gneE36 gneE34 gneE89 gneE22 gneE19 gneE20"/>
    </vehicle>
    <vehicle id="myflow1.25" type="bus" depart="537.08">
        <route edges="gneE52 gneE50 gneE48 gneE46 gneE44 gneE42 gneE40 gneE38 gneE36 gneE34 gneE89 gneE22 gneE19 gneE20"/>
    </vehicle>
    <vehicle id="myflow3.4" type="bus" depart="540.24">
        <route edges="gneE81 gneE79 gneE77 gneE74 gneE72 gneE86 gneE84 gneE61 gneE63"/>
    </vehicle>
    <vehicle id="myflow2.1" type="bus" depart="541.55">
        <route edges="gneE64 gneE62 gneE85 gneE87 gneE71 gneE73 gneE76 gneE78 gneE80"/>
    </vehicle>
    <vehicle id="myflow1.26" type="bus" depart="542.30">
        <route edges="gneE52 gneE50 gneE48 gneE46 gneE44 gneE42 gneE40 gneE38 gneE36 gneE34 gneE89 gneE22 gneE19 gneE20"/>
    </vehicle>
    <vehicle id="myflow1.27" type="bus" depart="551.65">
        <route edges="gneE52 gneE50 gneE48 gneE46 gneE44 gneE42 gneE40 gneE38 gneE36 gneE34 gneE89 gneE22 gneE19 gneE20"/>
    </vehicle>
    <vehicle id="myflow2.2" type="bus" depart="557.85">
        <route edges="gneE64 gneE62 gneE85 gneE87 gneE71 gneE73 gneE76 gneE78 gneE80"/>
    </vehicle>
    <vehicle id="myflow3.5" type="bus" depart="563.58">
        <route edges="gneE81 gneE79 gneE77 gneE74 gneE72 gneE86 gneE84 gneE61 gneE63"/>
    </vehicle>
    <vehicle id="myflow2.3" type="bus" depart="572.60">
        <route edges="gneE64 gneE62 gneE85 gneE87 gneE71 gneE73 gneE76 gneE78 gneE80"/>
    </vehicle>
    <vehicle id="myflow.24" type="bus" depart="592.77">
        <route edges="gneE0 gneE16 gneE21 gneE88 gneE33 gneE35 gneE37 gneE39 gneE41 gneE43 gneE45 gneE47 gneE49 gneE51"/>
    </vehicle>
    <vehicle id="myflow1.28" type="bus" depart="593.77">
        <route edges="gneE52 gneE50 gneE48 gneE46 gneE44 gneE42 gneE40 gneE38 gneE36 gneE34 gneE89 gneE22 gneE19 gneE20"/>
    </vehicle>
    <vehicle id="myflow1.29" type="bus" depart="596.97">
        <route edges="gneE52 gneE50 gneE48 gneE46 gneE44 gneE42 gneE40 gneE38 gneE36 gneE34 gneE89 gneE22 gneE19 gneE20"/>
    </vehicle>
    <vehicle id="myflow.25" type="bus" depart="599.47">
        <route edges="gneE0 gneE16 gneE21 gneE88 gneE33 gneE35 gneE37 gneE39 gneE41 gneE43 gneE45 gneE47 gneE49 gneE51"/>
    </vehicle>
    <vehicle id="myflow2.4" type="bus" depart="601.67">
        <route edges="gneE64 gneE62 gneE85 gneE87 gneE71 gneE73 gneE76 gneE78 gneE80"/>
    </vehicle>
    <vehicle id="myflow1.30" type="bus" depart="602.15">
        <route edges="gneE52 gneE50 gneE48 gneE46 gneE44 gneE42 gneE40 gneE38 gneE36 gneE34 gneE89 gneE22 gneE19 gneE20"/>
    </vehicle>
    <vehicle id="myflow1.31" type="bus" depart="602.84">
        <route edges="gneE52 gneE50 gneE48 gneE46 gneE44 gneE42 gneE40 gneE38 gneE36 gneE34 gneE89 gneE22 gneE19 gneE20"/>
    </vehicle>
    <vehicle id="myflow2.5" type="bus" depart="608.52">
        <route edges="gneE64 gneE62 gneE85 gneE87 gneE71 gneE73 gneE76 gneE78 gneE80"/>
    </vehicle>
    <vehicle id="myflow3.6" type="bus" depart="621.78">
        <route edges="gneE81 gneE79 gneE77 gneE74 gneE72 gneE86 gneE84 gneE61 gneE63"/>
    </vehicle>
    <vehicle id="myflow.26" type="bus" depart="623.93">
        <route edges="gneE0 gneE16 gneE21 gneE88 gneE33 gneE35 gneE37 gneE39 gneE41 gneE43 gneE45 gneE47 gneE49 gneE51"/>
    </vehicle>
    <vehicle id="myflow2.6" type="bus" depart="625.46">
        <route edges="gneE64 gneE62 gneE85 gneE87 gneE71 gneE73 gneE76 gneE78 gneE80"/>
    </vehicle>
    <vehicle id="myflow1.32" type="bus" depart="628.79">
        <route edges="gneE52 gneE50 gneE48 gneE46 gneE44 gneE42 gneE40 gneE38 gneE36 gneE34 gneE89 gneE22 gneE19 gneE20"/>
    </vehicle>
    <vehicle id="myflow3.7" type="bus" depart="642.95">
        <route edges="gneE81 gneE79 gneE77 gneE74 gneE72 gneE86 gneE84 gneE61 gneE63"/>
    </vehicle>
    <vehicle id="myflow.27" type="bus" depart="654.29">
        <route edges="gneE0 gneE16 gneE21 gneE88 gneE33 gneE35 gneE37 gneE39 gneE41 gneE43 gneE45 gneE47 gneE49 gneE51"/>
    </vehicle>
    <vehicle id="myflow3.8" type="bus" depart="655.65">
        <route edges="gneE81 gneE79 gneE77 gneE74 gneE72 gneE86 gneE84 gneE61 gneE63"/>
    </vehicle>
    <vehicle id="myflow2.7" type="bus" depart="658.69">
        <route edges="gneE64 gneE62 gneE85 gneE87 gneE71 gneE73 gneE76 gneE78 gneE80"/>
    </vehicle>
    <vehicle id="myflow.28" type="bus" depart="664.87">
        <route edges="gneE0 gneE16 gneE21 gneE88 gneE33 gneE35 gneE37 gneE39 gneE41 gneE43 gneE45 gneE47 gneE49 gneE51"/>
    </vehicle>
    <vehicle id="myflow.29" type="bus" depart="666.67">
        <route edges="gneE0 gneE16 gneE21 gneE88 gneE33 gneE35 gneE37 gneE39 gneE41 gneE43 gneE45 gneE47 gneE49 gneE51"/>
    </vehicle>
    <vehicle id="myflow2.8" type="bus" depart="667.24">
        <route edges="gneE64 gneE62 gneE85 gneE87 gneE71 gneE73 gneE76 gneE78 gneE80"/>
    </vehicle>
    <vehicle id="myflow3.9" type="bus" depart="669.47">
        <route edges="gneE81 gneE79 gneE77 gneE74 gneE72 gneE86 gneE84 gneE61 gneE63"/>
    </vehicle>
    <vehicle id="myflow.30" type="bus" depart="672.19">
        <route edges="gneE0 gneE16 gneE21 gneE88 gneE33 gneE35 gneE37 gneE39 gneE41 gneE43 gneE45 gneE47 gneE49 gneE51"/>
    </vehicle>
    <vehicle id="myflow.31" type="bus" depart="674.42">
        <route edges="gneE0 gneE16 gneE21 gneE88 gneE33 gneE35 gneE37 gneE39 gneE41 gneE43 gneE45 gneE47 gneE49 gneE51"/>
    </vehicle>
    <vehicle id="myflow2.9" type="bus" depart="679.74">
        <route edges="gneE64 gneE62 gneE85 gneE87 gneE71 gneE73 gneE76 gneE78 gneE80"/>
    </vehicle>
    <vehicle id="myflow2.10" type="bus" depart="682.59">
        <route edges="gneE64 gneE62 gneE85 gneE87 gneE71 gneE73 gneE76 gneE78 gneE80"/>
    </vehicle>
    <vehicle id="myflow3.10" type="bus" depart="686.01">
        <route edges="gneE81 gneE79 gneE77 gneE74 gneE72 gneE86 gneE84 gneE61 gneE63"/>
    </vehicle>
    <vehicle id="myflow2.11" type="bus" depart="688.13">
        <route edges="gneE64 gneE62 gneE85 gneE87 gneE71 gneE73 gneE76 gneE78 gneE80"/>
    </vehicle>
    <vehicle id="myflow3.11" type="bus" depart="701.67">
        <route edges="gneE81 gneE79 gneE77 gneE74 gneE72 gneE86 gneE84 gneE61 gneE63"/>
    </vehicle>
    <vehicle id="myflow1.33" type="bus" depart="704.07">
        <route edges="gneE52 gneE50 gneE48 gneE46 gneE44 gneE42 gneE40 gneE38 gneE36 gneE34 gneE89 gneE22 gneE19 gneE20"/>
    </vehicle>
    <vehicle id="myflow3.12" type="bus" depart="707.72">
        <route edges="gneE81 gneE79 gneE77 gneE74 gneE72 gneE86 gneE84 gneE61 gneE63"/>
    </vehicle>
    <vehicle id="myflow1.34" type="bus" depart="710.84">
        <route edges="gneE52 gneE50 gneE48 gneE46 gneE44 gneE42 gneE40 gneE38 gneE36 gneE34 gneE89 gneE22 gneE19 gneE20"/>
    </vehicle>
    <vehicle id="myflow3.13" type="bus" depart="712.57">
        <route edges="gneE81 gneE79 gneE77 gneE74 gneE72 gneE86 gneE84 gneE61 gneE63"/>
    </vehicle>
    <vehicle id="myflow1.35" type="bus" depart="714.63">
        <route edges="gneE52 gneE50 gneE48 gneE46 gneE44 gneE42 gneE40 gneE38 gneE36 gneE34 gneE89 gneE22 gneE19 gneE20"/>
    </vehicle>
    <vehicle id="myflow1.36" type="bus" depart="724.95">
        <route edges="gneE52 gneE50 gneE48 gneE46 gneE44 gneE42 gneE40 gneE38 gneE36 gneE34 gneE89 gneE22 gneE19 gneE20"/>
    </vehicle>
    <vehicle id="myflow.32" type="bus" depart="734.46">
        <route edges="gneE0 gneE16 gneE21 gneE88 gneE33 gneE35 gneE37 gneE39 gneE41 gneE43 gneE45 gneE47 gneE49 gneE51"/>
    </vehicle>
    <vehicle id="myflow3.14" type="bus" depart="743.98">
        <route edges="gneE81 gneE79 gneE77 gneE74 gneE72 gneE86 gneE84 gneE61 gneE63"/>
    </vehicle>
    <vehicle id="myflow.33" type="bus" depart="747.20">
        <route edges="gneE0 gneE16 gneE21 gneE88 gneE33 gneE35 gneE37 gneE39 gneE41 gneE43 gneE45 gneE47 gneE49 gneE51"/>
    </vehicle>
    <vehicle id="myflow.34" type="bus" depart="754.69">
        <route edges="gneE0 gneE16 gneE21 gneE88 gneE33 gneE35 gneE37 gneE39 gneE41 gneE43 gneE45 gneE47 gneE49 gneE51"/>
    </vehicle>
    <vehicle id="myflow.35" type="bus" depart="755.38">
        <route edges="gneE0 gneE16 gneE21 gneE88 gneE33 gneE35 gneE37 gneE39 gneE41 gneE43 gneE45 gneE47 gneE49 gneE51"/>
    </vehicle>
    <vehicle id="myflow.36" type="bus" depart="759.41">
        <route edges="gneE0 gneE16 gneE21 gneE88 gneE33 gneE35 gneE37 gneE39 gneE41 gneE43 gneE45 gneE47 gneE49 gneE51"/>
    </vehicle>
    <vehicle id="myflow2.12" type="bus" depart="762.10">
        <route edges="gneE64 gneE62 gneE85 gneE87 gneE71 gneE73 gneE76 gneE78 gneE80"/>
    </vehicle>
    <vehicle id="myflow.37" type="bus" depart="764.28">
        <route edges="gneE0 gneE16 gneE21 gneE88 gneE33 gneE35 gneE37 gneE39 gneE41 gneE43 gneE45 gneE47 gneE49 gneE51"/>
    </vehicle>
    <vehicle id="myflow.38" type="bus" depart="768.76">
        <route edges="gneE0 gneE16 gneE21 gneE88 gneE33 gneE35 gneE37 gneE39 gneE41 gneE43 gneE45 gneE47 gneE49 gneE51"/>
    </vehicle>
    <vehicle id="myflow1.37" type="bus" depart="785.27">
        <route edges="gneE52 gneE50 gneE48 gneE46 gneE44 gneE42 gneE40 gneE38 gneE36 gneE34 gneE89 gneE22 gneE19 gneE20"/>
    </vehicle>
    <vehicle id="myflow1.38" type="bus" depart="793.64">
        <route edges="gneE52 gneE50 gneE48 gneE46 gneE44 gneE42 gneE40 gneE38 gneE36 gneE34 gneE89 gneE22 gneE19 gneE20"/>
    </vehicle>
    <vehicle id="myflow.39" type="bus" depart="799.13">
        <route edges="gneE0 gneE16 gneE21 gneE88 gneE33 gneE35 gneE37 gneE39 gneE41 gneE43 gneE45 gneE47 gneE49 gneE51"/>
    </vehicle>
    <vehicle id="myflow1.39" type="bus" depart="799.91">
        <route edges="gneE52 gneE50 gneE48 gneE46 gneE44 gneE42 gneE40 gneE38 gneE36 gneE34 gneE89 gneE22 gneE19 gneE20"/>
    </vehicle>
    <vehicle id="myflow.40" type="bus" depart="801.83">
        <route edges="gneE0 gneE16 gneE21 gneE88 gneE33 gneE35 gneE37 gneE39 gneE41 gneE43 gneE45 gneE47 gneE49 gneE51"/>
    </vehicle>
    <vehicle id="myflow.41" type="bus" depart="804.47">
        <route edges="gneE0 gneE16 gneE21 gneE88 gneE33 gneE35 gneE37 gneE39 gneE41 gneE43 gneE45 gneE47 gneE49 gneE51"/>
    </vehicle>
    <vehicle id="myflow2.13" type="bus" depart="805.79">
        <route edges="gneE64 gneE62 gneE85 gneE87 gneE71 gneE73 gneE76 gneE78 gneE80"/>
    </vehicle>
    <vehicle id="myflow3.15" type="bus" depart="808.16">
        <route edges="gneE81 gneE79 gneE77 gneE74 gneE72 gneE86 gneE84 gneE61 gneE63"/>
    </vehicle>
    <vehicle id="myflow.42" type="bus" depart="819.88">
        <route edges="gneE0 gneE16 gneE21 gneE88 gneE33 gneE35 gneE37 gneE39 gneE41 gneE43 gneE45 gneE47 gneE49 gneE51"/>
    </vehicle>
    <vehicle id="myflow3.16" type="bus" depart="825.69">
        <route edges="gneE81 gneE79 gneE77 gneE74 gneE72 gneE86 gneE84 gneE61 gneE63"/>
    </vehicle>
    <vehicle id="myflow1.40" type="bus" depart="842.52">
        <route edges="gneE52 gneE50 gneE48 gneE46 gneE44 gneE42 gneE40 gneE38 gneE36 gneE34 gneE89 gneE22 gneE19 gneE20"/>
    </vehicle>
    <vehicle id="myflow3.17" type="bus" depart="845.45">
        <route edges="gneE81 gneE79 gneE77 gneE74 gneE72 gneE86 gneE84 gneE61 gneE63"/>
    </vehicle>
    <vehicle id="myflow.43" type="bus" depart="853.01">
        <route edges="gneE0 gneE16 gneE21 gneE88 gneE33 gneE35 gneE37 gneE39 gneE41 gneE43 gneE45 gneE47 gneE49 gneE51"/>
    </vehicle>
    <vehicle id="myflow2.14" type="bus" depart="853.09">
        <route edges="gneE64 gneE62 gneE85 gneE87 gneE71 gneE73 gneE76 gneE78 gneE80"/>
    </vehicle>
    <vehicle id="myflow2.15" type="bus" depart="863.29">
        <route edges="gneE64 gneE62 gneE85 gneE87 gneE71 gneE73 gneE76 gneE78 gneE80"/>
    </vehicle>
    <vehicle id="myflow1.41" type="bus" depart="869.60">
        <route edges="gneE52 gneE50 gneE48 gneE46 gneE44 gneE42 gneE40 gneE38 gneE36 gneE34 gneE89 gneE22 gneE19 gneE20"/>
    </vehicle>
    <vehicle id="myflow3.18" type="bus" depart="886.17">
        <route edges="gneE81 gneE79 gneE77 gneE74 gneE72 gneE86 gneE84 gneE61 gneE63"/>
    </vehicle>
    <vehicle id="myflow.44" type="bus" depart="890.42">
        <route edges="gneE0 gneE16 gneE21 gneE88 gneE33 gneE35 gneE37 gneE39 gneE41 gneE43 gneE45 gneE47 gneE49 gneE51"/>
    </vehicle>
    <vehicle id="myflow1.42" type="bus" depart="895.05">
        <route edges="gneE52 gneE50 gneE48 gneE46 gneE44 gneE42 gneE40 gneE38 gneE36 gneE34 gneE89 gneE22 gneE19 gneE20"/>
    </vehicle>
    <vehicle id="myflow3.19" type="bus" depart="901.16">
        <route edges="gneE81 gneE79 gneE77 gneE74 gneE72 gneE86 gneE84 gneE61 gneE63"/>
    </vehicle>
    <vehicle id="myflow1.43" type="bus" depart="904.22">
        <route edges="gneE52 gneE50 gneE48 gneE46 gneE44 gneE42 gneE40 gneE38 gneE36 gneE34 gneE89 gneE22 gneE19 gneE20"/>
    </vehicle>
    <vehicle id="myflow1.44" type="bus" depart="905.65">
        <route edges="gneE52 gneE50 gneE48 gneE46 gneE44 gneE42 gneE40 gneE38 gneE36 gneE34 gneE89 gneE22 gneE19 gneE20"/>
    </vehicle>
    <vehicle id="myflow2.16" type="bus" depart="910.68">
        <route edges="gneE64 gneE62 gneE85 gneE87 gneE71 gneE73 gneE76 gneE78 gneE80"/>
    </vehicle>
    <vehicle id="myflow.45" type="bus" depart="912.02">
        <route edges="gneE0 gneE16 gneE21 gneE88 gneE33 gneE35 gneE37 gneE39 gneE41 gneE43 gneE45 gneE47 gneE49 gneE51"/>
    </vehicle>
    <vehicle id="myflow1.45" type="bus" depart="916.38">
        <route edges="gneE52 gneE50 gneE48 gneE46 gneE44 gneE42 gneE40 gneE38 gneE36 gneE34 gneE89 gneE22 gneE19 gneE20"/>
    </vehicle>
    <vehicle id="myflow3.20" type="bus" depart="917.29">
        <route edges="gneE81 gneE79 gneE77 gneE74 gneE72 gneE86 gneE84 gneE61 gneE63"/>
    </vehicle>
    <vehicle id="myflow2.17" type="bus" depart="923.68">
        <route edges="gneE64 gneE62 gneE85 gneE87 gneE71 gneE73 gneE76 gneE78 gneE80"/>
    </vehicle>
    <vehicle id="myflow3.21" type="bus" depart="933.86">
        <route edges="gneE81 gneE79 gneE77 gneE74 gneE72 gneE86 gneE84 gneE61 gneE63"/>
    </vehicle>
    <vehicle id="myflow3.22" type="bus" depart="939.25">
        <route edges="gneE81 gneE79 gneE77 gneE74 gneE72 gneE86 gneE84 gneE61 gneE63"/>
    </vehicle>
    <vehicle id="myflow3.23" type="bus" depart="940.35">
        <route edges="gneE81 gneE79 gneE77 gneE74 gneE72 gneE86 gneE84 gneE61 gneE63"/>
    </vehicle>
    <vehicle id="myflow3.24" type="bus" depart="947.19">
        <route edges="gneE81 gneE79 gneE77 gneE74 gneE72 gneE86 gneE84 gneE61 gneE63"/>
    </vehicle>
    <vehicle id="myflow2.18" type="bus" depart="948.25">
        <route edges="gneE64 gneE62 gneE85 gneE87 gneE71 gneE73 gneE76 gneE78 gneE80"/>
    </vehicle>
    <vehicle id="myflow1.46" type="bus" depart="948.79">
        <route edges="gneE52 gneE50 gneE48 gneE46 gneE44 gneE42 gneE40 gneE38 gneE36 gneE34 gneE89 gneE22 gneE19 gneE20"/>
    </vehicle>
    <vehicle id="myflow1.47" type="bus" depart="960.74">
        <route edges="gneE52 gneE50 gneE48 gneE46 gneE44 gneE42 gneE40 gneE38 gneE36 gneE34 gneE89 gneE22 gneE19 gneE20"/>
    </vehicle>
    <vehicle id="myflow.46" type="bus" depart="967.34">
        <route edges="gneE0 gneE16 gneE21 gneE88 gneE33 gneE35 gneE37 gneE39 gneE41 gneE43 gneE45 gneE47 gneE49 gneE51"/>
    </vehicle>
    <vehicle id="myflow1.48" type="bus" depart="972.03">
        <route edges="gneE52 gneE50 gneE48 gneE46 gneE44 gneE42 gneE40 gneE38 gneE36 gneE34 gneE89 gneE22 gneE19 gneE20"/>
    </vehicle>
    <vehicle id="myflow3.25" type="bus" depart="974.44">
        <route edges="gneE81 gneE79 gneE77 gneE74 gneE72 gneE86 gneE84 gneE61 gneE63"/>
    </vehicle>
    <vehicle id="myflow3.26" type="bus" depart="976.04">
        <route edges="gneE81 gneE79 gneE77 gneE74 gneE72 gneE86 gneE84 gneE61 gneE63"/>
    </vehicle>
    <vehicle id="myflow.47" type="bus" depart="976.27">
        <route edges="gneE0 gneE16 gneE21 gneE88 gneE33 gneE35 gneE37 gneE39 gneE41 gneE43 gneE45 gneE47 gneE49 gneE51"/>
    </vehicle>
    <vehicle id="myflow.48" type="bus" depart="977.73">
        <route edges="gneE0 gneE16 gneE21 gneE88 gneE33 gneE35 gneE37 gneE39 gneE41 gneE43 gneE45 gneE47 gneE49 gneE51"/>
    </vehicle>
    <vehicle id="myflow1.49" type="bus" depart="984.39">
        <route edges="gneE52 gneE50 gneE48 gneE46 gneE44 gneE42 gneE40 gneE38 gneE36 gneE34 gneE89 gneE22 gneE19 gneE20"/>
    </vehicle>
    <vehicle id="myflow3.27" type="bus" depart="984.43">
        <route edges="gneE81 gneE79 gneE77 gneE74 gneE72 gneE86 gneE84 gneE61 gneE63"/>
    </vehicle>
    <vehicle id="myflow2.19" type="bus" depart="989.85">
        <route edges="gneE64 gneE62 gneE85 gneE87 gneE71 gneE73 gneE76 gneE78 gneE80"/>
    </vehicle>
    <vehicle id="myflow.49" type="bus" depart="991.39">
        <route edges="gneE0 gneE16 gneE21 gneE88 gneE33 gneE35 gneE37 gneE39 gneE41 gneE43 gneE45 gneE47 gneE49 gneE51"/>
    </vehicle>
    <vehicle id="myflow2.20" type="bus" depart="994.74">
        <route edges="gneE64 gneE62 gneE85 gneE87 gneE71 gneE73 gneE76 gneE78 gneE80"/>
    </vehicle>
    <vehicle id="myflow3.28" type="bus" depart="1026.88">
        <route edges="gneE81 gneE79 gneE77 gneE74 gneE72 gneE86 gneE84 gneE61 gneE63"/>
    </vehicle>
    <vehicle id="myflow2.21" type="bus" depart="1055.59">
        <route edges="gneE64 gneE62 gneE85 gneE87 gneE71 gneE73 gneE76 gneE78 gneE80"/>
    </vehicle>
    <vehicle id="myflow2.22" type="bus" depart="1057.09">
        <route edges="gneE64 gneE62 gneE85 gneE87 gneE71 gneE73 gneE76 gneE78 gneE80"/>
    </vehicle>
    <vehicle id="myflow3.29" type="bus" depart="1063.33">
        <route edges="gneE81 gneE79 gneE77 gneE74 gneE72 gneE86 gneE84 gneE61 gneE63"/>
    </vehicle>
    <vehicle id="myflow3.30" type="bus" depart="1087.90">
        <route edges="gneE81 gneE79 gneE77 gneE74 gneE72 gneE86 gneE84 gneE61 gneE63"/>
    </vehicle>
    <vehicle id="myflow2.23" type="bus" depart="1087.99">
        <route edges="gneE64 gneE62 gneE85 gneE87 gneE71 gneE73 gneE76 gneE78 gneE80"/>
    </vehicle>
    <vehicle id="myflow2.24" type="bus" depart="1097.95">
        <route edges="gneE64 gneE62 gneE85 gneE87 gneE71 gneE73 gneE76 gneE78 gneE80"/>
    </vehicle>
    <vehicle id="myflow3.31" type="bus" depart="1101.11">
        <route edges="gneE81 gneE79 gneE77 gneE74 gneE72 gneE86 gneE84 gneE61 gneE63"/>
    </vehicle>
    <vehicle id="myflow2.25" type="bus" depart="1196.11">
        <route edges="gneE64 gneE62 gneE85 gneE87 gneE71 gneE73 gneE76 gneE78 gneE80"/>
    </vehicle>
    <vehicle id="myflow3.32" type="bus" depart="1202.02">
        <route edges="gneE81 gneE79 gneE77 gneE74 gneE72 gneE86 gneE84 gneE61 gneE63"/>
    </vehicle>
    <vehicle id="myflow2.26" type="bus" depart="1210.31">
        <route edges="gneE64 gneE62 gneE85 gneE87 gneE71 gneE73 gneE76 gneE78 gneE80"/>
    </vehicle>
    <vehicle id="myflow2.27" type="bus" depart="1237.42">
        <route edges="gneE64 gneE62 gneE85 gneE87 gneE71 gneE73 gneE76 gneE78 gneE80"/>