<?xml version="1.0" encoding="UTF-8"?>

<!-- generated on Thu Jan 31 21:31:17 2019 by SUMO duarouter Version 0.32.0
<?xml version="1.0" encoding="UTF-8"?>

<configuration xmlns:xsi="http://www.w3.org/2001/XMLSchema-instance" xsi:noNamespaceSchemaLocation="http://sumo.dlr.de/xsd/duarouterConfiguration.xsd">

    <input>
        <net-file value="net.net.xml"/>
        <route-files value="result.rou.xml"/>
    </input>

    <output>
        <output-file value="myroutes.rou.xml"/>
        <alternatives-output value="myroutes.rou.alt.xml"/>
    </output>

    <processing>
        <randomize-flows value="true"/>
    </processing>

</configuration>
-->

<routes xmlns:xsi="http://www.w3.org/2001/XMLSchema-instance" xsi:noNamespaceSchemaLocation="http://sumo.dlr.de/xsd/routes_file.xsd">
    <vType id="truckv1" length="4.30" minGap="2.00" vClass="truck" guiShape="truck" width="1.80" height="2.00" latAlignment="left" lcPushy="1"/>
    <vehicle id="myflow19.0" type="truckv1" depart="0.12">
        <route edges="T1 32586513#0 32586513#1 32586513#2 32586513#3 32586513#4 32586513#5 gneE86 gneE84 gneE61 gneE63"/>
    </vehicle>
    <vType id="truckv2" length="9.50" minGap="2.00" vClass="truck" guiShape="truck" width="2.35" height="2.60" latAlignment="left" lcPushy="1"/>
    <vehicle id="myflow70.0" type="truckv2" depart="0.77">
        <route edges="T8 32586228#1 32586228#2 32586228#3 32586228#4 32586228#5 32586228#6 -32579063#0 gneE40 gneE38 gneE36 gneE34 gneE89 gneE84 gneE61 gneE63"/>
    </vehicle>
    <vType id="bus" length="9.44" minGap="2.00" vClass="bus" guiShape="bus" width="2.45" height="3.10" latAlignment="left" lcPushy="1"/>
    <vehicle id="myflow37.0" type="bus" depart="0.79">
        <route edges="gneE0 gneE16 gneE21 gneE88 gneE33 gneE35 gneE37 gneE39 gneE41 gneE43 gneE45 gneE47 gneE49 gneE51"/>
    </vehicle>
    <vType id="taxi" minGap="2.00" vClass="taxi" guiShape="passenger/van" latAlignment="left" lcPushy="1"/>
    <vehicle id="myflow24.0" type="taxi" depart="1.44">
        <route edges="T1 32586513#0 32586513#1 32586513#2 32586513#3 32586513#4 32586513#5 gneE86 gneE84 gneE61 gneE63"/>
    </vehicle>
    <vType id="motorcycle" length="2.03" minGap="0.50" vClass="motorcycle" width="0.74" height="1.15" latAlignment="right" lcPushy="1"/>
    <vehicle id="myflow7.0" type="motorcycle" depart="1.83">
        <route edges="gneE52 gneE50 gneE48 gneE46 gneE44 gneE42 gneE40 gneE38 gneE36 gneE34 gneE89 gneE22 gneE19 gneE20"/>
    </vehicle>
    <vehicle id="myflow64.0" type="truckv2" depart="1.88">
        <route edges="gneE0 gneE16 gneE21 gneE88 gneE33 gneE35 gneE37 gneE39 gneE41 gneE43 gneE45 gneE47 gneE49 gneE51"/>
    </vehicle>
    <vehicle id="myflow2.0" type="bus" depart="2.36">
        <route edges="gneE64 gneE62 gneE85 gneE87 gneE71 gneE73 gneE76 gneE78 gneE80"/>
    </vehicle>
    <vType id="bicycle" minGap="0.50" vClass="bicycle" latAlignment="arbitrary" lcPushy="1"/>
    <vehicle id="myflow4.0" type="bicycle" depart="2.75">
        <route edges="gneE52 gneE50 gneE48 gneE46 gneE44 gneE42 gneE40 gneE38 gneE36 gneE34 gneE89 gneE22 gneE19 gneE20"/>
    </vehicle>
    <vehicle id="myflow3.0" type="bus" depart="2.83">
        <route edges="gneE81 gneE79 gneE77 gneE74 gneE72 gneE86 gneE84 gneE61 gneE63"/>
    </vehicle>
    <vehicle id="myflow39.0" type="motorcycle" depart="3.08">
        <route edges="gneE0 gneE16 gneE21 gneE88 gneE33 gneE35 gneE37 gneE39 gneE41 gneE43 gneE45 gneE47 gneE49 gneE51"/>
    </vehicle>
    <vType id="police" minGap="2.00" vClass="emergency" guiShape="police" latAlignment="arbitrary" lcPushy="1"/>
    <vehicle id="myflow35.0" type="police" depart="3.68">
        <route edges="T8 32586228#1 32586228#2 32586228#3 32586228#4 32586228#5 32586228#6 -32579063#0 gneE40 gneE38 gneE36 gneE34 gneE89 gneE84 gneE61 gneE63"/>
    </vehicle>
    <vehicle id="myflow10.0" type="truckv1" depart="3.69">
        <route edges="gneE52 gneE50 gneE48 gneE46 gneE44 gneE42 gneE40 gneE38 gneE36 gneE34 gneE89 gneE22 gneE19 gneE20"/>
    </vehicle>
    <vehicle id="myflow17.0" type="motorcycle" depart="4.33">
        <route edges="T1 32586513#0 32586513#1 32586513#2 32586513#3 32586513#4 32586513#5 gneE86 gneE84 gneE61 gneE63"/>
    </vehicle>
    <vehicle id="myflow34.0" type="truckv1" depart="4.33">
        <route edges="T8 32586228#1 32586228#2 32586228#3 32586228#4 32586228#5 32586228#6 -32579063#0 gneE40 gneE38 gneE36 gneE34 gneE89 gneE84 gneE61 gneE63"/>
    </vehicle>
    <vehicle id="myflow36.0" type="taxi" depart="4.69">
        <route edges="T8 32586228#1 32586228#2 32586228#3 32586228#4 32586228#5 32586228#6 -32579063#0 gneE40 gneE38 gneE36 gneE34 gneE89 gneE84 gneE61 gneE63"/>
    </vehicle>
    <vehicle id="myflow38.0" type="bicycle" depart="4.77">
        <route edges="gneE0 gneE16 gneE21 gneE88 gneE33 gneE35 gneE37 gneE39 gneE41 gneE43 gneE45 gneE47 gneE49 gneE51"/>
    </vehicle>
    <vehicle id="myflow14.0" type="police" depart="4.80">
        <route edges="gneE64 gneE62 gneE85 gneE87 gneE71 gneE73 gneE76 gneE78 gneE80"/>
    </vehicle>
    <vehicle id="myflow23.0" type="taxi" depart="5.03">
        <route edges="gneE81 gneE79 gneE77 gneE74 gneE72 gneE86 gneE84 gneE61 gneE63"/>
    </vehicle>
    <vehicle id="myflow30.0" type="taxi" depart="6.04">
        <route edges="T2 -468249333#1 32586513#0 32586513#1 32586513#2 32586513#3 32586513#4 32586513#5 gneE86 gneE84 gneE61 gneE63"/>
    </vehicle>
    <vehicle id="myflow18.0" type="bus" depart="6.14">
        <route edges="T1 32586513#0 32586513#1 32586513#2 32586513#3 32586513#4 32586513#5 gneE86 gneE84 gneE61 gneE63"/>
    </vehicle>
    <vehicle id="myflow34.1" type="truckv1" depart="7.36">
        <route edges="T8 32586228#1 32586228#2 32586228#3 32586228#4 32586228#5 32586228#6 -32579063#0 gneE40 gneE38 gneE36 gneE34 gneE89 gneE84 gneE61 gneE63"/>
    </vehicle>
    <vehicle id="myflow28.0" type="truckv1" depart="7.43">
        <route edges="T2 -468249333#1 32586513#0 32586513#1 32586513#2 32586513#3 32586513#4 32586513#5 gneE86 gneE84 gneE61 gneE63"/>
    </vehicle>
    <vehicle id="myflow33.0" type="motorcycle" depart="7.55">
        <route edges="T8 32586228#1 32586228#2 32586228#3 32586228#4 32586228#5 32586228#6 -32579063#0 gneE40 gneE38 gneE36 gneE34 gneE89 gneE84 gneE61 gneE63"/>
    </vehicle>
    <vehicle id="myflow70.1" type="truckv2" depart="7.99">
        <route edges="T8 32586228#1 32586228#2 32586228#3 32586228#4 32586228#5 32586228#6 -32579063#0 gneE40 gneE38 gneE36 gneE34 gneE89 gneE84 gneE61 gneE63"/>
    </vehicle>
    <vehicle id="myflow18.1" type="bus" depart="8.55">
        <route edges="T1 32586513#0 32586513#1 32586513#2 32586513#3 32586513#4 32586513#5 gneE86 gneE84 gneE61 gneE63"/>
    </vehicle>
    <vehicle id="myflow21.0" type="taxi" depart="8.68">
        <route edges="gneE52 gneE50 gneE48 gneE46 gneE44 gneE42 gneE40 gneE38 gneE36 gneE34 gneE89 gneE22 gneE19 gneE20"/>
    </vehicle>
    <vehicle id="myflow21.1" type="taxi" depart="8.70">
        <route edges="gneE52 gneE50 gneE48 gneE46 gneE44 gneE42 gneE40 gneE38 gneE36 gneE34 gneE89 gneE22 gneE19 gneE20"/>
    </vehicle>
    <vehicle id="myflow17.1" type="motorcycle" depart="8.71">
        <route edges="T1 32586513#0 32586513#1 32586513#2 32586513#3 32586513#4 32586513#5 gneE86 gneE84 gneE61 gneE63"/>
    </vehicle>
    <vehicle id="myflow38.1" type="bicycle" depart="8.91">
        <route edges="gneE0 gneE16 gneE21 gneE88 gneE33 gneE35 gneE37 gneE39 gneE41 gneE43 gneE45 gneE47 gneE49 gneE51"/>
    </vehicle>
    <vehicle id="myflow68.0" type="truckv2" depart="8.99">
        <route edges="T1 32586513#0 32586513#1 32586513#2 32586513#3 32586513#4 32586513#5 gneE86 gneE84 gneE61 gneE63"/>
    </vehicle>
    <vehicle id="myflow66.0" type="truckv2" depart="9.25">
        <route edges="gneE64 gneE62 gneE85 gneE87 gneE71 gneE73 gneE76 gneE78 gneE80"/>
    </vehicle>
    <vehicle id="myflow17.2" type="motorcycle" depart="9.34">
        <route edges="T1 32586513#0 32586513#1 32586513#2 32586513#3 32586513#4 32586513#5 gneE86 gneE84 gneE61 gneE63"/>
    </vehicle>
    <vehicle id="myflow37.1" type="bus" depart="9.74">
        <route edges="gneE0 gneE16 gneE21 gneE88 gneE33 gneE35 gneE37 gneE39 gneE41 gneE43 gneE45 gneE47 gneE49 gneE51"/>
    </vehicle>
    <vehicle id="myflow17.3" type="motorcycle" depart="10.16">
        <route edges="T1 32586513#0 32586513#1 32586513#2 32586513#3 32586513#4 32586513#5 gneE86 gneE84 gneE61 gneE63"/>
    </vehicle>
    <vehicle id="myflow33.1" type="motorcycle" depart="10.87">
        <route edges="T8 32586228#1 32586228#2 32586228#3 32586228#4 32586228#5 32586228#6 -32579063#0 gneE40 gneE38 gneE36 gneE34 gneE89 gneE84 gneE61 gneE63"/>
    </vehicle>
    <vehicle id="myflow34.2" type="truckv1" depart="11.00">
        <route edges="T8 32586228#1 32586228#2 32586228#3 32586228#4 32586228#5 32586228#6 -32579063#0 gneE40 gneE38 gneE36 gneE34 gneE89 gneE84 gneE61 gneE63"/>
    </vehicle>
    <vehicle id="myflow3.1" type="bus" depart="11.12">
        <route edges="gneE81 gneE79 gneE77 gneE74 gneE72 gneE86 gneE84 gneE61 gneE63"/>
    </vehicle>
    <vehicle id="myflow30.1" type="taxi" depart="11.29">
        <route edges="T2 -468249333#1 32586513#0 32586513#1 32586513#2 32586513#3 32586513#4 32586513#5 gneE86 gneE84 gneE61 gneE63"/>
    </vehicle>
    <vehicle id="myflow11.0" type="truckv1" depart="11.33">
        <route edges="gneE64 gneE62 gneE85 gneE87 gneE71 gneE73 gneE76 gneE78 gneE80"/>
    </vehicle>
    <vehicle id="myflow27.0" type="motorcycle" depart="11.45">
        <route edges="T2 -468249333#1 32586513#0 32586513#1 32586513#2 32586513#3 32586513#4 32586513#5 gneE86 gneE84 gneE61 gneE63"/>
    </vehicle>
    <vehicle id="myflow40.0" type="truckv1" depart="11.57">
        <route edges="gneE0 gneE16 gneE21 gneE88 gneE33 gneE35 gneE37 gneE39 gneE41 gneE43 gneE45 gneE47 gneE49 gneE51"/>
    </vehicle>
    <vehicle id="myflow22.0" type="taxi" depart="11.71">
        <route edges="gneE64 gneE62 gneE85 gneE87 gneE71 gneE73 gneE76 gneE78 gneE80"/>
    </vehicle>
    <vehicle id="myflow8.0" type="motorcycle" depart="11.98">
        <route edges="gneE64 gneE62 gneE85 gneE87 gneE71 gneE73 gneE76 gneE78 gneE80"/>
    </vehicle>
    <vehicle id="myflow36.1" type="taxi" depart="12.17">
        <route edges="T8 32586228#1 32586228#2 32586228#3 32586228#4 32586228#5 32586228#6 -32579063#0 gneE40 gneE38 gneE36 gneE34 gneE89 gneE84 gneE61 gneE63"/>
    </vehicle>
    <vehicle id="myflow26.0" type="bicycle" depart="12.32">
        <route edges="T2 -468249333#1 32586513#0 32586513#1 32586513#2 32586513#3 32586513#4 32586513#5 32586513#6 32586513#7 32586513#8 32586513#9 517711011#0 517711011#1 517711011#2 517711011#3 517711011#4 -517711020#3 -517711020#2 517711016#4 -517711021#3 -517711021#2 -517711021#1 -517711021#0 -32579063#0 gneE41 gneE43 gneE45 gneE47 gneE49 gneE50 517145317#0 T5"/>
    </vehicle>
    <vehicle id="myflow33.2" type="motorcycle" depart="12.84">
        <route edges="T8 32586228#1 32586228#2 32586228#3 32586228#4 32586228#5 32586228#6 -32579063#0 gneE40 gneE38 gneE36 gneE34 gneE89 gneE84 gneE61 gneE63"/>
    </vehicle>
    <vehicle id="myflow18.2" type="bus" depart="12.93">
        <route edges="T1 32586513#0 32586513#1 32586513#2 32586513#3 32586513#4 32586513#5 gneE86 gneE84 gneE61 gneE63"/>
    </vehicle>
    <vehicle id="myflow2.1" type="bus" depart="13.05">
        <route edges="gneE64 gneE62 gneE85 gneE87 gneE71 gneE73 gneE76 gneE78 gneE80"/>
    </vehicle>
    <vehicle id="myflow37.2" type="bus" depart="13.56">
        <route edges="gneE0 gneE16 gneE21 gneE88 gneE33 gneE35 gneE37 gneE39 gneE41 gneE43 gneE45 gneE47 gneE49 gneE51"/>
    </vehicle>
    <vehicle id="myflow9.0" type="motorcycle" depart="14.07">
        <route edges="gneE81 gneE79 gneE77 gneE74 gneE72 gneE86 gneE84 gneE61 gneE63"/>
    </vehicle>
    <vehicle id="myflow12.0" type="truckv1" depart="14.43">
        <route edges="gneE81 gneE79 gneE77 gneE74 gneE72 gneE86 gneE84 gneE61 gneE63"/>
    </vehicle>
    <vehicle id="myflow27.1" type="motorcycle" depart="14.71">
        <route edges="T2 -468249333#1 32586513#0 32586513#1 32586513#2 32586513#3 32586513#4 32586513#5 gneE86 gneE84 gneE61 gneE63"/>
    </vehicle>
    <vehicle id="myflow21.2" type="taxi" depart="14.88">
        <route edges="gneE52 gneE50 gneE48 gneE46 gneE44 gneE42 gneE40 gneE38 gneE36 gneE34 gneE89 gneE22 gneE19 gneE20"/>
    </vehicle>
    <vehicle id="myflow33.3" type="motorcycle" depart="15.00">
        <route edges="T8 32586228#1 32586228#2 32586228#3 32586228#4 32586228#5 32586228#6 -32579063#0 gneE40 gneE38 gneE36 gneE34 gneE89 gneE84 gneE61 gneE63"/>
    </vehicle>
    <vehicle id="myflow11.1" type="truckv1" depart="15.90">
        <route edges="gneE64 gneE62 gneE85 gneE87 gneE71 gneE73 gneE76 gneE78 gneE80"/>
    </vehicle>
    <vehicle id="myflow8.1" type="motorcycle" depart="16.08">
        <route edges="gneE64 gneE62 gneE85 gneE87 gneE71 gneE73 gneE76 gneE78 gneE80"/>
    </vehicle>
    <vehicle id="myflow13.0" type="police" depart="16.08">
        <route edges="gneE52 gneE50 gneE48 gneE46 gneE44 gneE42 gneE40 gneE38 gneE36 gneE34 gneE89 gneE22 gneE19 gneE20"/>
    </vehicle>
    <vehicle id="myflow42.0" type="taxi" depart="16.19">
        <route edges="gneE0 gneE16 gneE21 gneE88 gneE33 gneE35 gneE37 gneE39 gneE41 gneE43 gneE45 gneE47 gneE49 gneE51"/>
    </vehicle>
    <vehicle id="myflow.0" type="bus" depart="16.72">
        <route edges="gneE52 gneE50 gneE48 gneE46 gneE44 gneE42 gneE40 gneE38 gneE36 gneE34 gneE89 gneE22 gneE19 gneE20"/>
    </vehicle>
    <vehicle id="myflow4.1" type="bicycle" depart="17.15">
        <route edges="gneE52 gneE50 gneE48 gneE46 gneE44 gneE42 gneE40 gneE38 gneE36 gneE34 gneE89 gneE22 gneE19 gneE20"/>
    </vehicle>
    <vehicle id="myflow9.1" type="motorcycle" depart="17.47">
        <route edges="gneE81 gneE79 gneE77 gneE74 gneE72 gneE86 gneE84 gneE61 gneE63"/>
    </vehicle>
    <vehicle id="myflow42.1" type="taxi" depart="17.71">
        <route edges="gneE0 gneE16 gneE21 gneE88 gneE33 gneE35 gneE37 gneE39 gneE41 gneE43 gneE45 gneE47 gneE49 gneE51"/>
    </vehicle>
    <vehicle id="myflow37.3" type="bus" depart="18.13">
        <route edges="gneE0 gneE16 gneE21 gneE88 gneE33 gneE35 gneE37 gneE39 gneE41 gneE43 gneE45 gneE47 gneE49 gneE51"/>
    </vehicle>
    <vehicle id="myflow36.2" type="taxi" depart="18.30">
        <route edges="T8 32586228#1 32586228#2 32586228#3 32586228#4 32586228#5 32586228#6 -32579063#0 gneE40 gneE38 gneE36 gneE34 gneE89 gneE84 gneE61 gneE63"/>
    </vehicle>
    <vehicle id="myflow19.1" type="truckv1" depart="18.38">
        <route edges="T1 32586513#0 32586513#1 32586513#2 32586513#3 32586513#4 32586513#5 gneE86 gneE84 gneE61 gneE63"/>
    </vehicle>
    <vehicle id="myflow37.4" type="bus" depart="18.39">
        <route edges="gneE0 gneE16 gneE21 gneE88 gneE33 gneE35 gneE37 gneE39 gneE41 gneE43 gneE45 gneE47 gneE49 gneE51"/>
    </vehicle>
    <vehicle id="myflow36.3" type="taxi" depart="18.64">
        <route edges="T8 32586228#1 32586228#2 32586228#3 32586228#4 32586228#5 32586228#6 -32579063#0 gneE40 gneE38 gneE36 gneE34 gneE89 gneE84 gneE61 gneE63"/>
    </vehicle>
    <vehicle id="myflow11.2" type="truckv1" depart="18.84">
        <route edges="gneE64 gneE62 gneE85 gneE87 gneE71 gneE73 gneE76 gneE78 gneE80"/>
    </vehicle>
    <vehicle id="myflow67.0" type="truckv2" depart="18.86">
        <route edges="gneE81 gneE79 gneE77 gneE74 gneE72 gneE86 gneE84 gneE61 gneE63"/>
    </vehicle>
    <vehicle id="myflow30.2" type="taxi" depart="18.94">
        <route edges="T2 -468249333#1 32586513#0 32586513#1 32586513#2 32586513#3 32586513#4 32586513#5 gneE86 gneE84 gneE61 gneE63"/>
    </vehicle>
    <vehicle id="myflow32.0" type="bicycle" depart="18.97">
        <route edges="T4 -517145317#0 gneE48 gneE46 gneE44 gneE42 gneE40 gneE38 gneE36 gneE34 gneE89 gneE22 T6"/>
    </vehicle>
    <vehicle id="myflow25.0" type="bus" depart="19.61">
        <route edges="T2 -468249333#1 32586513#0 32586513#1 32586513#2 32586513#3 32586513#4 32586513#5 gneE86 gneE84 gneE61 gneE63"/>
    </vehicle>
    <vType id="pedestrian" vClass="pedestrian"/>
    <vehicle id="myflow63.0" type="pedestrian" depart="19.62">
        <route edges="gneE85 :4628048104_w3 :4628048104_c2 :4628048104_w2 :4628048104_c1 :4628048104_w1 gneE88"/>
    </vehicle>
    <vehicle id="myflow33.4" type="motorcycle" depart="19.66">
        <route edges="T8 32586228#1 32586228#2 32586228#3 32586228#4 32586228#5 32586228#6 -32579063#0 gneE40 gneE38 gneE36 gneE34 gneE89 gneE84 gneE61 gneE63"/>
    </vehicle>
    <vehicle id="myflow10.1" type="truckv1" depart="19.73">
        <route edges="gneE52 gneE50 gneE48 gneE46 gneE44 gneE42 gneE40 gneE38 gneE36 gneE34 gneE89 gneE22 gneE19 gneE20"/>
    </vehicle>
    <vehicle id="myflow69.0" type="truckv2" depart="19.75">
        <route edges="T2 -468249333#1 32586513#0 32586513#1 32586513#2 32586513#3 32586513#4 32586513#5 gneE86 gneE84 gneE61 gneE63"/>
    </vehicle>
    <vehicle id="myflow39.1" type="motorcycle" depart="19.77">
        <route edges="gneE0 gneE16 gneE21 gneE88 gneE33 gneE35 gneE37 gneE39 gneE41 gneE43 gneE45 gneE47 gneE49 gneE51"/>
    </vehicle>
    <vehicle id="myflow25.1" type="bus" depart="20.23">
        <route edges="T2 -468249333#1 32586513#0 32586513#1 32586513#2 32586513#3 32586513#4 32586513#5 gneE86 gneE84 gneE61 gneE63"/>
    </vehicle>
    <vehicle id="myflow31.0" type="bus" depart="20.98">
        <route edges="T8 32586228#1 32586228#2 32586228#3 32586228#4 32586228#5 32586228#6 -32579063#0 gneE40 gneE38 gneE36 gneE34 gneE89 gneE84 gneE61 gneE63"/>
    </vehicle>
    <vehicle id="myflow36.4" type="taxi" depart="21.21">
        <route edges="T8 32586228#1 32586228#2 32586228#3 32586228#4 32586228#5 32586228#6 -32579063#0 gneE40 gneE38 gneE36 gneE34 gneE89 gneE84 gneE61 gneE63"/>
    </vehicle>
    <vehicle id="myflow22.1" type="taxi" depart="21.26">
        <route edges="gneE64 gneE62 gneE85 gneE87 gneE71 gneE73 gneE76 gneE78 gneE80"/>
    </vehicle>
    <vehicle id="myflow27.2" type="motorcycle" depart="21.26">
        <route edges="T2 -468249333#1 32586513#0 32586513#1 32586513#2 32586513#3 32586513#4 32586513#5 gneE86 gneE84 gneE61 gneE63"/>
    </vehicle>
    <vehicle id="myflow9.2" type="motorcycle" depart="21.76">
        <route edges="gneE81 gneE79 gneE77 gneE74 gneE72 gneE86 gneE84 gneE61 gneE63"/>
    </vehicle>
    <vehicle id="myflow7.1" type="motorcycle" depart="22.28">
        <route edges="gneE52 gneE50 gneE48 gneE46 gneE44 gneE42 gneE40 gneE38 gneE36 gneE34 gneE89 gneE22 gneE19 gneE20"/>
    </vehicle>
    <vehicle id="myflow36.5" type="taxi" depart="22.42">
        <route edges="T8 32586228#1 32586228#2 32586228#3 32586228#4 32586228#5 32586228#6 -32579063#0 gneE40 gneE38 gneE36 gneE34 gneE89 gneE84 gneE61 gneE63"/>
    </vehicle>
    <vehicle id="myflow40.1" type="truckv1" depart="22.46">
        <route edges="gneE0 gneE16 gneE21 gneE88 gneE33 gneE35 gneE37 gneE39 gneE41 gneE43 gneE45 gneE47 gneE49 gneE51"/>
    </vehicle>
    <vehicle id="myflow34.3" type="truckv1" depart="22.69">
        <route edges="T8 32586228#1 32586228#2 32586228#3 32586228#4 32586228#5 32586228#6 -32579063#0 gneE40 gneE38 gneE36 gneE34 gneE89 gneE84 gneE61 gneE63"/>
    </vehicle>
    <vehicle id="myflow.1" type="bus" depart="22.71">
        <route edges="gneE52 gneE50 gneE48 gneE46 gneE44 gneE42 gneE40 gneE38 gneE36 gneE34 gneE89 gneE22 gneE19 gneE20"/>
    </vehicle>
    <vehicle id="myflow8.2" type="motorcycle" depart="22.82">
        <route edges="gneE64 gneE62 gneE85 gneE87 gneE71 gneE73 gneE76 gneE78 gneE80"/>
    </vehicle>
    <vehicle id="myflow25.2" type="bus" depart="23.05">
        <route edges="T2 -468249333#1 32586513#0 32586513#1 32586513#2 32586513#3 32586513#4 32586513#5 gneE86 gneE84 gneE61 gneE63"/>
    </vehicle>
    <vType id="firebrigade" vClass="emergency" guiShape="firebrigade" latAlignment="arbitrary" lcPushy="1"/>
    <vehicle id="myflow55.0" type="firebrigade" depart="23.28">
        <route edges="T8 32586228#1 32586228#2 32586228#3 32586228#4 32586228#5 32586228#6 -32579063#0 gneE40 gneE38 gneE36 gneE34 gneE89 gneE84 gneE61 gneE63"/>
    </vehicle>
    <vehicle id="myflow12.1" type="truckv1" depart="23.34">
        <route edges="gneE81 gneE79 gneE77 gneE74 gneE72 gneE86 gneE84 gneE61 gneE63"/>
    </vehicle>
    <vehicle id="myflow23.1" type="taxi" depart="23.87">
        <route edges="gneE81 gneE79 gneE77 gneE74 gneE72 gneE86 gneE84 gneE61 gneE63"/>
    </vehicle>
    <vehicle id="myflow7.2" type="motorcycle" depart="23.89">
        <route edges="gneE52 gneE50 gneE48 gneE46 gneE44 gneE42 gneE40 gneE38 gneE36 gneE34 gneE89 gneE22 gneE19 gneE20"/>
    </vehicle>
    <vehicle id="myflow66.1" type="truckv2" depart="24.04">
        <route edges="gneE64 gneE62 gneE85 gneE87 gneE71 gneE73 gneE76 gneE78 gneE80"/>
    </vehicle>
    <vehicle id="myflow8.3" type="motorcycle" depart="24.44">
        <route edges="gneE64 gneE62 gneE85 gneE87 gneE71 gneE73 gneE76 gneE78 gneE80"/>
    </vehicle>
    <vehicle id="myflow13.1" type="police" depart="24.45">
        <route edges="gneE52 gneE50 gneE48 gneE46 gneE44 gneE42 gneE40 gneE38 gneE36 gneE34 gneE89 gneE22 gneE19 gneE20"/>
    </vehicle>
    <vehicle id="myflow24.1" type="taxi" depart="24.70">
        <route edges="T1 32586513#0 32586513#1 32586513#2 32586513#3 32586513#4 32586513#5 gneE86 gneE84 gneE61 gneE63"/>
    </vehicle>
    <vehicle id="myflow6.0" type="bicycle" depart="24.98">
        <route edges="gneE81 gneE79 gneE77 gneE74 gneE72 gneE86 gneE84 gneE61 gneE63"/>
    </vehicle>
    <vehicle id="myflow65.0" type="truckv2" depart="25.12">
        <route edges="gneE52 gneE50 gneE48 gneE46 gneE44 gneE42 gneE40 gneE38 gneE36 gneE34 gneE89 gneE22 gneE19 gneE20"/>
    </vehicle>
    <vehicle id="myflow22.2" type="taxi" depart="25.41">
        <route edges="gneE64 gneE62 gneE85 gneE87 gneE71 gneE73 gneE76 gneE78 gneE80"/>
    </vehicle>
    <vehicle id="myflow70.2" type="truckv2" depart="25.71">
        <route edges="T8 32586228#1 32586228#2 32586228#3 32586228#4 32586228#5 32586228#6 -32579063#0 gneE40 gneE38 gneE36 gneE34 gneE89 gneE84 gneE61 gneE63"/>
    </vehicle>
    <vehicle id="myflow68.1" type="truckv2" depart="25.74">
        <route edges="T1 32586513#0 32586513#1 32586513#2 32586513#3 32586513#4 32586513#5 gneE86 gneE84 gneE61 gneE63"/>
    </vehicle>
    <vehicle id="myflow17.4" type="motorcycle" depart="25.86">
        <route edges="T1 32586513#0 32586513#1 32586513#2 32586513#3 32586513#4 32586513#5 gneE86 gneE84 gneE61 gneE63"/>
    </vehicle>
    <vehicle id="myflow19.2" type="truckv1" depart="26.01">
        <route edges="T1 32586513#0 32586513#1 32586513#2 32586513#3 32586513#4 32586513#5 gneE86 gneE84 gneE61 gneE63"/>
    </vehicle>
    <vehicle id="myflow69.1" type="truckv2" depart="26.31">
        <route edges="T2 -468249333#1 32586513#0 32586513#1 32586513#2 32586513#3 32586513#4 32586513#5 gneE86 gneE84 gneE61 gneE63"/>
    </vehicle>
    <vehicle id="myflow9.3" type="motorcycle" depart="26.38">
        <route edges="gneE81 gneE79 gneE77 gneE74 gneE72 gneE86 gneE84 gneE61 gneE63"/>
    </vehicle>
    <vehicle id="myflow18.3" type="bus" depart="26.51">
        <route edges="T1 32586513#0 32586513#1 32586513#2 32586513#3 32586513#4 32586513#5 gneE86 gneE84 gneE61 gneE63"/>
    </vehicle>
    <vehicle id="myflow8.4" type="motorcycle" depart="26.98">
        <route edges="gneE64 gneE62 gneE85 gneE87 gneE71 gneE73 gneE76 gneE78 gneE80"/>
    </vehicle>
    <vehicle id="myflow67.1" type="truckv2" depart="27.26">
        <route edges="gneE81 gneE79 gneE77 gneE74 gneE72 gneE86 gneE84 gneE61 gneE63"/>
    </vehicle>
    <vehicle id="myflow37.5" type="bus" depart="27.48">
        <route edges="gneE0 gneE16 gneE21 gneE88 gneE33 gneE35 gneE37 gneE39 gneE41 gneE43 gneE45 gneE47 gneE49 gneE51"/>
    </vehicle>
    <vehicle id="myflow42.2" type="taxi" depart="28.73">
        <route edges="gneE0 gneE16 gneE21 gneE88 gneE33 gneE35 gneE37 gneE39 gneE41 gneE43 gneE45 gneE47 gneE49 gneE51"/>
    </vehicle>
    <vehicle id="myflow39.2" type="motorcycle" depart="29.15">
        <route edges="gneE0 gneE16 gneE21 gneE88 gneE33 gneE35 gneE37 gneE39 gneE41 gneE43 gneE45 gneE47 gneE49 gneE51"/>
    </vehicle>
    <vehicle id="myflow7.3" type="motorcycle" depart="29.50">
        <route edges="gneE52 gneE50 gneE48 gneE46 gneE44 gneE42 gneE40 gneE38 gneE36 gneE34 gneE89 gneE22 gneE19 gneE20"/>
    </vehicle>
    <vehicle id="myflow68.2" type="truckv2" depart="29.89">
        <route edges="T1 32586513#0 32586513#1 32586513#2 32586513#3 32586513#4 32586513#5 gneE86 gneE84 gneE61 gneE63"/>
    </vehicle>
    <vehicle id="myflow11.3" type="truckv1" depart="29.95">
        <route edges="gneE64 gneE62 gneE85 gneE87 gneE71 gneE73 gneE76 gneE78 gneE80"/>
    </vehicle>
    <vehicle id="myflow10.2" type="truckv1" depart="30.03">
        <route edges="gneE52 gneE50 gneE48 gneE46 gneE44 gneE42 gneE40 gneE38 gneE36 gneE34 gneE89 gneE22 gneE19 gneE20"/>
    </vehicle>
    <vehicle id="myflow27.3" type="motorcycle" depart="30.26">
        <route edges="T2 -468249333#1 32586513#0 32586513#1 32586513#2 32586513#3 32586513#4 32586513#5 gneE86 gneE84 gneE61 gneE63"/>
    </vehicle>
    <vehicle id="myflow42.3" type="taxi" depart="31.16">
        <route edges="gneE0 gneE16 gneE21 gneE88 gneE33 gneE35 gneE37 gneE39 gneE41 gneE43 gneE45 gneE47 gneE49 gneE51"/>
    </vehicle>
    <vehicle id="myflow59.0" type="pedestrian" depart="31.84">
        <route edges="gneE88 :5051610929_w0 gneE89"/>
    </vehicle>
    <vehicle id="myflow8.5" type="motorcycle" depart="32.14">
        <route edges="gneE64 gneE62 gneE85 gneE87 gneE71 gneE73 gneE76 gneE78 gneE80"/>
    </vehicle>
    <vehicle id="myflow27.4" type="motorcycle" depart="32.84">
        <route edges="T2 -468249333#1 32586513#0 32586513#1 32586513#2 32586513#3 32586513#4 32586513#5 gneE86 gneE84 gneE61 gneE63"/>
    </vehicle>
    <vehicle id="myflow16.0" type="bicycle" depart="33.54">
        <route edges="T1 32586513#0 32586513#1 32586513#2 32586513#3 32586513#4 32586513#5 gneE86 gneE84 gneE61 gneE63"/>
    </vehicle>
    <vehicle id="myflow9.4" type="motorcycle" depart="33.95">
        <route edges="gneE81 gneE79 gneE77 gneE74 gneE72 gneE86 gneE84 gneE61 gneE63"/>
    </vehicle>
    <vehicle id="myflow17.5" type="motorcycle" depart="35.00">
        <route edges="T1 32586513#0 32586513#1 32586513#2 32586513#3 32586513#4 32586513#5 gneE86 gneE84 gneE61 gneE63"/>
    </vehicle>
    <vehicle id="myflow58.0" type="pedestrian" depart="35.08">
        <route edges="gneE87 :2302073729_w0 gneE86"/>
    </vehicle>
    <vehicle id="myflow17.6" type="motorcycle" depart="35.18">
        <route edges="T1 32586513#0 32586513#1 32586513#2 32586513#3 32586513#4 32586513#5 gneE86 gneE84 gneE61 gneE63"/>
    </vehicle>
    <vehicle id="myflow68.3" type="truckv2" depart="35.25">
        <route edges="T1 32586513#0 32586513#1 32586513#2 32586513#3 32586513#4 32586513#5 gneE86 gneE84 gneE61 gneE63"/>
    </vehicle>
    <vehicle id="myflow8.6" type="motorcycle" depart="35.56">
        <route edges="gneE64 gneE62 gneE85 gneE87 gneE71 gneE73 gneE76 gneE78 gneE80"/>
    </vehicle>
    <vehicle id="myflow32.1" type="bicycle" depart="35.70">
        <route edges="T4 -517145317#0 gneE48 gneE46 gneE44 gneE42 gneE40 gneE38 gneE36 gneE34 gneE89 gneE22 T6"/>
    </vehicle>
    <vehicle id="myflow60.0" type="pedestrian" depart="35.81">
        <route edges="gneE85 :4628048104_w3 :4628048104_c2 :4628048104_w2 :4628048104_c1 :4628048104_w1 :4628048104_c0 :4628048104_w0 gneE84"/>
    </vehicle>
    <vehicle id="myflow69.2" type="truckv2" depart="35.90">
        <route edges="T2 -468249333#1 32586513#0 32586513#1 32586513#2 32586513#3 32586513#4 32586513#5 gneE86 gneE84 gneE61 gneE63"/>
    </vehicle>
    <vehicle id="myflow28.1" type="truckv1" depart="36.17">
        <route edges="T2 -468249333#1 32586513#0 32586513#1 32586513#2 32586513#3 32586513#4 32586513#5 gneE86 gneE84 gneE61 gneE63"/>
    </vehicle>
    <vehicle id="myflow34.4" type="truckv1" depart="36.22">
        <route edges="T8 32586228#1 32586228#2 32586228#3 32586228#4 32586228#5 32586228#6 -32579063#0 gneE40 gneE38 gneE36 gneE34 gneE89 gneE84 gneE61 gneE63"/>
    </vehicle>
    <vehicle id="myflow8.7" type="motorcycle" depart="36.35">
        <route edges="gneE64 gneE62 gneE85 gneE87 gneE71 gneE73 gneE76 gneE78 gneE80"/>
    </vehicle>
    <vehicle id="myflow8.8" type="motorcycle" depart="36.58">
        <route edges="gneE64 gneE62 gneE85 gneE87 gneE71 gneE73 gneE76 gneE78 gneE80"/>
    </vehicle>
    <vehicle id="myflow39.3" type="motorcycle" depart="36.64">
        <route edges="gneE0 gneE16 gneE21 gneE88 gneE33 gneE35 gneE37 gneE39 gneE41 gneE43 gneE45 gneE47 gneE49 gneE51"/>
    </vehicle>
    <vehicle id="myflow2.2" type="bus" depart="36.86">
        <route edges="gneE64 gneE62 gneE85 gneE87 gneE71 gneE73 gneE76 gneE78 gneE80"/>
    </vehicle>
    <vehicle id="myflow40.2" type="truckv1" depart="37.22">
        <route edges="gneE0 gneE16 gneE21 gneE88 gneE33 gneE35 gneE37 gneE39 gneE41 gneE43 gneE45 gneE47 gneE49 gneE51"/>
    </vehicle>
    <vehicle id="myflow17.7" type="motorcycle" depart="37.39">
        <route edges="T1 32586513#0 32586513#1 32586513#2 32586513#3 32586513#4 32586513#5 gneE86 gneE84 gneE61 gneE63"/>
    </vehicle>
    <vehicle id="myflow67.2" type="truckv2" depart="37.57">
        <route edges="gneE81 gneE79 gneE77 gneE74 gneE72 gneE86 gneE84 gneE61 gneE63"/>
    </vehicle>
    <vehicle id="myflow28.2" type="truckv1" depart="37.59">
        <route edges="T2 -468249333#1 32586513#0 32586513#1 32586513#2 32586513#3 32586513#4 32586513#5 gneE86 gneE84 gneE61 gneE63"/>
    </vehicle>
    <vehicle id="myflow38.2" type="bicycle" depart="37.70">
        <route edges="gneE0 gneE16 gneE21 gneE88 gneE33 gneE35 gneE37 gneE39 gneE41 gneE43 gneE45 gneE47 gneE49 gneE51"/>
    </vehicle>
    <vehicle id="myflow38.3" type="bicycle" depart="37.74">