<?xml version="1.0" encoding="UTF-8"?>

<!-- generated on Fri Jan 18 13:34:06 2019 by SUMO duarouter Version 0.32.0
<?xml version="1.0" encoding="UTF-8"?>

<configuration xmlns:xsi="http://www.w3.org/2001/XMLSchema-instance" xsi:noNamespaceSchemaLocation="http://sumo.dlr.de/xsd/duarouterConfiguration.xsd">

    <input>
        <net-file value="new_map.net.xml"/>
        <route-files value="result.rou.xml"/>
    </input>

    <output>
        <output-file value="myroutes.rou.xml"/>
        <alternatives-output value="myroutes.rou.alt.xml"/>
    </output>

    <processing>
        <randomize-flows value="true"/>
    </processing>

</configuration>
-->

<routes xmlns:xsi="http://www.w3.org/2001/XMLSchema-instance" xsi:noNamespaceSchemaLocation="http://sumo.dlr.de/xsd/routes_file.xsd">
    <vType id="motorcycle" minGap="0.50" vClass="motorcycle"/>
    <vehicle id="myflow27.0" type="motorcycle" depart="0.12">
        <route edges="D5 D511 D2 L21 L14"/>
    </vehicle>
    <vType id="truck" minGap="2.00" vClass="truck" guiShape="truck"/>
    <vehicle id="myflow40.0" type="truck" depart="0.77">
        <route edges="L14 L43 L35 L56"/>
    </vehicle>
    <vType id="bus" minGap="2.00" vClass="bus" guiShape="bus"/>
    <vehicle id="myflow.0" type="bus" depart="0.79">
        <route edges="L65 L53 L34"/>
    </vehicle>
    <vehicle id="myflow28.0" type="truck" depart="1.44">
        <route edges="D5 D511 D2 L21 L14"/>
    </vehicle>
    <vehicle id="myflow39.0" type="motorcycle" depart="1.83">
        <route edges="L14 L43 L35 L56"/>
    </vehicle>
    <vehicle id="myflow83.0" type="motorcycle" depart="1.88">
        <route edges="L23 L34"/>
    </vehicle>
    <vehicle id="myflow57.0" type="bus" depart="2.36">
        <route edges="D3 L32 L21"/>
    </vehicle>
    <vType id="bicycle" minGap="0.50" vClass="bicycle"/>
    <vehicle id="myflow5.0" type="bicycle" depart="2.75">
        <route edges="L23 D4"/>
    </vehicle>
    <vehicle id="myflow18.0" type="bus" depart="2.83">
        <route edges="L12 D1 D115 D6"/>
    </vehicle>
    <vType id="taxi" minGap="2.00" vClass="taxi" guiShape="passenger/van"/>
    <vehicle id="myflow64.0" type="taxi" depart="2.83">
        <route edges="D3 L32 L21"/>
    </vehicle>
    <vehicle id="myflow26.0" type="bicycle" depart="3.08">
        <route edges="D5 D511 D2 L21 L14"/>
    </vehicle>
    <vehicle id="myflow10.0" type="truck" depart="3.68">
        <route edges="L65 L53 L34"/>
    </vehicle>
    <vehicle id="myflow75.0" type="motorcycle" depart="3.69">
        <route edges="D3 L34 L41"/>
    </vehicle>
    <vehicle id="myflow33.0" type="motorcycle" depart="4.33">
        <route edges="D2 L23 D4"/>
    </vehicle>
    <vehicle id="myflow9.0" type="motorcycle" depart="4.33">
        <route edges="D3 L32"/>
    </vehicle>
    <vehicle id="myflow100.0" type="truck" depart="4.69">
        <route edges="L65 L53 L32"/>
    </vehicle>
    <vehicle id="myflow4.0" type="bicycle" depart="4.77">
        <route edges="L65 L53 L34"/>
    </vehicle>
    <vehicle id="myflow40.1" type="truck" depart="4.80">
        <route edges="L14 L43 L35 L56"/>
    </vehicle>
    <vehicle id="myflow76.0" type="truck" depart="5.03">
        <route edges="D3 L34 L41"/>
    </vehicle>
    <vehicle id="myflow34.0" type="truck" depart="6.04">
        <route edges="D2 L23 D4"/>
    </vehicle>
    <vehicle id="myflow25.0" type="bus" depart="6.14">
        <route edges="D5 D511 D2 L21 L14"/>
    </vehicle>
    <vehicle id="myflow104.0" type="taxi" depart="6.68">
        <route edges="L65 L53 L32"/>
    </vehicle>
    <vehicle id="myflow33.1" type="motorcycle" depart="7.36">
        <route edges="D2 L23 D4"/>
    </vehicle>
    <vehicle id="myflow27.1" type="motorcycle" depart="7.43">
        <route edges="D5 D511 D2 L21 L14"/>
    </vehicle>
    <vehicle id="myflow59.0" type="motorcycle" depart="7.55">
        <route edges="D3 L32 L21"/>
    </vehicle>
    <vehicle id="myflow72.0" type="taxi" depart="7.63">
        <route edges="D3 L35 L56"/>
    </vehicle>
    <vehicle id="myflow99.0" type="motorcycle" depart="7.99">
        <route edges="L65 L53 L32"/>
    </vehicle>
    <vehicle id="myflow31.0" type="bus" depart="8.55">
        <route edges="D2 L23 D4"/>
    </vehicle>
    <vehicle id="myflow60.0" type="truck" depart="8.68">
        <route edges="D3 L32"/>
    </vehicle>
    <vehicle id="myflow12.0" type="truck" depart="8.70">
        <route edges="D3 L32 L21"/>
    </vehicle>
    <vehicle id="myflow9.1" type="motorcycle" depart="8.71">
        <route edges="D3 L32"/>
    </vehicle>
    <vehicle id="myflow4.1" type="bicycle" depart="8.91">
        <route edges="L65 L53 L34"/>
    </vehicle>
    <vehicle id="myflow36.0" type="taxi" depart="8.97">
        <route edges="D2 L23 D4"/>
    </vehicle>
    <vehicle id="myflow99.1" type="motorcycle" depart="8.99">
        <route edges="L65 L53 L32"/>
    </vehicle>
    <vehicle id="myflow91.0" type="motorcycle" depart="9.25">
        <route edges="L43 D4"/>
    </vehicle>
    <vehicle id="myflow9.2" type="motorcycle" depart="9.34">
        <route edges="D3 L32"/>
    </vehicle>
    <vehicle id="myflow37.0" type="bus" depart="9.74">
        <route edges="L14 L43 L35 L56"/>
    </vehicle>
    <vehicle id="myflow9.3" type="motorcycle" depart="10.16">
        <route edges="D3 L32"/>
    </vehicle>
    <vehicle id="myflow64.1" type="taxi" depart="10.63">
        <route edges="D3 L32 L21"/>
    </vehicle>
    <vehicle id="myflow59.1" type="motorcycle" depart="10.87">
        <route edges="D3 L32 L21"/>
    </vehicle>
    <vehicle id="myflow33.2" type="motorcycle" depart="11.00">
        <route edges="D2 L23 D4"/>
    </vehicle>
    <vehicle id="myflow73.0" type="bus" depart="11.12">
        <route edges="D3 L34 L41"/>
    </vehicle>
    <vehicle id="myflow34.1" type="truck" depart="11.29">
        <route edges="D2 L23 D4"/>
    </vehicle>
    <vehicle id="myflow17.0" type="motorcycle" depart="11.33">
        <route edges="L12 D1 D115 D6"/>
    </vehicle>
    <vehicle id="myflow67.0" type="motorcycle" depart="11.45">
        <route edges="D3 L35 L56"/>
    </vehicle>
    <vehicle id="myflow75.1" type="motorcycle" depart="11.57">
        <route edges="D3 L34 L41"/>
    </vehicle>
    <vehicle id="myflow68.0" type="truck" depart="11.71">
        <route edges="D3 L35 L56"/>
    </vehicle>
    <vehicle id="myflow8.0" type="motorcycle" depart="11.98">
        <route edges="L23 D4"/>
    </vehicle>
    <vehicle id="myflow100.1" type="truck" depart="12.17">
        <route edges="L65 L53 L32"/>
    </vehicle>
    <vehicle id="myflow74.0" type="bicycle" depart="12.32">
        <route edges="D3 L34 L41"/>
    </vehicle>
    <vehicle id="myflow59.2" type="motorcycle" depart="12.84">
        <route edges="D3 L32 L21"/>
    </vehicle>
    <vehicle id="myflow25.1" type="bus" depart="12.93">
        <route edges="D5 D511 D2 L21 L14"/>
    </vehicle>
    <vehicle id="myflow57.1" type="bus" depart="13.05">
        <route edges="D3 L32 L21"/>
    </vehicle>
    <vehicle id="myflow.1" type="bus" depart="13.56">
        <route edges="L65 L53 L34"/>
    </vehicle>
    <vehicle id="myflow8.1" type="motorcycle" depart="14.07">
        <route edges="L23 D4"/>
    </vehicle>
    <vehicle id="myflow27.2" type="motorcycle" depart="14.43">
        <route edges="D5 D511 D2 L21 L14"/>
    </vehicle>
    <vehicle id="myflow67.1" type="motorcycle" depart="14.71">
        <route edges="D3 L35 L56"/>
    </vehicle>
    <vehicle id="myflow60.1" type="truck" depart="14.88">
        <route edges="D3 L32"/>
    </vehicle>
    <vehicle id="myflow59.3" type="motorcycle" depart="15.00">
        <route edges="D3 L32 L21"/>
    </vehicle>
    <vehicle id="myflow17.1" type="motorcycle" depart="15.90">
        <route edges="L12 D1 D115 D6"/>
    </vehicle>
    <vehicle id="myflow7.0" type="motorcycle" depart="16.08">
        <route edges="L65 L53 L34"/>
    </vehicle>
    <vehicle id="myflow40.2" type="truck" depart="16.08">
        <route edges="L14 L43 L35 L56"/>
    </vehicle>
    <vehicle id="myflow11.0" type="truck" depart="16.19">
        <route edges="L23 D4"/>
    </vehicle>
    <vehicle id="myflow2.0" type="bus" depart="16.72">
        <route edges="L23 D4"/>
    </vehicle>
    <vehicle id="myflow5.1" type="bicycle" depart="17.15">
        <route edges="L23 D4"/>
    </vehicle>
    <vehicle id="myflow9.4" type="motorcycle" depart="17.47">
        <route edges="D3 L32"/>
    </vehicle>
    <vehicle id="myflow11.1" type="truck" depart="17.71">
        <route edges="L23 D4"/>
    </vehicle>
    <vehicle id="myflow21.0" type="taxi" depart="18.06">
        <route edges="L65 L53 L34"/>
    </vehicle>
    <vehicle id="myflow37.1" type="bus" depart="18.13">
        <route edges="L14 L43 L35 L56"/>
    </vehicle>
    <vehicle id="myflow84.0" type="truck" depart="18.30">
        <route edges="L23 L34"/>
    </vehicle>
    <vehicle id="myflow27.3" type="motorcycle" depart="18.38">
        <route edges="D5 D511 D2 L21 L14"/>
    </vehicle>
    <vehicle id="myflow37.2" type="bus" depart="18.39">
        <route edges="L14 L43 L35 L56"/>
    </vehicle>
    <vehicle id="myflow92.0" type="truck" depart="18.64">
        <route edges="L43 D4"/>
    </vehicle>
    <vehicle id="myflow17.2" type="motorcycle" depart="18.84">
        <route edges="L12 D1 D115 D6"/>
    </vehicle>
    <vehicle id="myflow91.1" type="motorcycle" depart="18.86">
        <route edges="L43 D4"/>
    </vehicle>
    <vehicle id="myflow34.2" type="truck" depart="18.94">
        <route edges="D2 L23 D4"/>
    </vehicle>
    <vehicle id="myflow16.0" type="bicycle" depart="18.97">
        <route edges="L12 D1 D115 D6"/>
    </vehicle>
    <vehicle id="myflow89.0" type="bus" depart="19.61">
        <route edges="L43 D4"/>
    </vehicle>
    <vehicle id="myflow64.2" type="taxi" depart="19.62">
        <route edges="D3 L32 L21"/>
    </vehicle>
    <vType id="firebrigade" vClass="emergency" guiShape="firebrigade"/>
    <vehicle id="myflow70.0" type="firebrigade" depart="19.62">
        <route edges="D3 L35 L56"/>
    </vehicle>
    <vehicle id="myflow59.4" type="motorcycle" depart="19.66">
        <route edges="D3 L32 L21"/>
    </vehicle>
    <vehicle id="myflow17.3" type="motorcycle" depart="19.73">
        <route edges="L12 D1 D115 D6"/>
    </vehicle>
    <vehicle id="myflow99.2" type="motorcycle" depart="19.75">
        <route edges="L65 L53 L32"/>
    </vehicle>
    <vehicle id="myflow39.1" type="motorcycle" depart="19.77">
        <route edges="L14 L43 L35 L56"/>
    </vehicle>
    <vehicle id="myflow81.0" type="bus" depart="20.23">
        <route edges="L23 L34"/>
    </vehicle>
    <vehicle id="myflow38.0" type="bicycle" depart="20.98">
        <route edges="L14 L43 L35 L56"/>
    </vehicle>
    <vehicle id="myflow84.1" type="truck" depart="21.21">
        <route edges="L23 L34"/>
    </vehicle>
    <vehicle id="myflow68.1" type="truck" depart="21.26">
        <route edges="D3 L35 L56"/>
    </vehicle>
    <vehicle id="myflow59.5" type="motorcycle" depart="21.26">
        <route edges="D3 L32 L21"/>
    </vehicle>
    <vehicle id="myflow96.0" type="taxi" depart="21.28">
        <route edges="L43 D4"/>
    </vehicle>
    <vehicle id="myflow8.2" type="motorcycle" depart="21.76">
        <route edges="L23 D4"/>
    </vehicle>
    <vehicle id="myflow39.2" type="motorcycle" depart="22.28">
        <route edges="L14 L43 L35 L56"/>
    </vehicle>
    <vehicle id="myflow80.0" type="taxi" depart="22.32">
        <route edges="D3 L34 L41"/>
    </vehicle>
    <vehicle id="myflow92.1" type="truck" depart="22.42">
        <route edges="L43 D4"/>
    </vehicle>
    <vehicle id="myflow75.2" type="motorcycle" depart="22.46">
        <route edges="D3 L34 L41"/>
    </vehicle>
    <vehicle id="myflow33.3" type="motorcycle" depart="22.69">
        <route edges="D2 L23 D4"/>
    </vehicle>
    <vehicle id="myflow3.0" type="bus" depart="22.71">
        <route edges="D3 L32"/>
    </vehicle>
    <vehicle id="myflow7.1" type="motorcycle" depart="22.82">
        <route edges="L65 L53 L34"/>
    </vehicle>
    <vehicle id="myflow81.1" type="bus" depart="23.05">
        <route edges="L23 L34"/>
    </vehicle>
    <vehicle id="myflow10.1" type="truck" depart="23.28">
        <route edges="L65 L53 L34"/>
    </vehicle>
    <vehicle id="myflow17.4" type="motorcycle" depart="23.34">
        <route edges="L12 D1 D115 D6"/>
    </vehicle>
    <vehicle id="myflow23.0" type="taxi" depart="23.39">
        <route edges="D3 L32"/>
    </vehicle>
    <vehicle id="myflow76.1" type="truck" depart="23.87">
        <route edges="D3 L34 L41"/>
    </vehicle>
    <vehicle id="myflow39.3" type="motorcycle" depart="23.89">
        <route edges="L14 L43 L35 L56"/>
    </vehicle>
    <vehicle id="myflow91.2" type="motorcycle" depart="24.04">
        <route edges="L43 D4"/>
    </vehicle>
    <vehicle id="myflow8.3" type="motorcycle" depart="24.44">
        <route edges="L23 D4"/>
    </vehicle>
    <vehicle id="myflow40.3" type="truck" depart="24.45">
        <route edges="L14 L43 L35 L56"/>
    </vehicle>
    <vehicle id="myflow88.0" type="taxi" depart="24.61">
        <route edges="L23 L34"/>
    </vehicle>
    <vType id="emergency" vClass="emergency" guiShape="emergency"/>
    <vehicle id="myflow79.0" type="emergency" depart="24.67">
        <route edges="D3 L34 L41"/>
    </vehicle>
    <vehicle id="myflow19.0" type="truck" depart="24.70">
        <route edges="L12 D1 D115 D6"/>
    </vehicle>
    <vehicle id="myflow58.0" type="bicycle" depart="24.98">
        <route edges="D3 L32 L21"/>
    </vehicle>
    <vehicle id="myflow83.1" type="motorcycle" depart="25.12">
        <route edges="L23 L34"/>
    </vehicle>
    <vehicle id="myflow68.2" type="truck" depart="25.41">
        <route edges="D3 L35 L56"/>
    </vehicle>
    <vehicle id="myflow99.3" type="motorcycle" depart="25.71">
        <route edges="L65 L53 L32"/>
    </vehicle>
    <vehicle id="myflow99.4" type="motorcycle" depart="25.74">
        <route edges="L65 L53 L32"/>
    </vehicle>
    <vehicle id="myflow9.5" type="motorcycle" depart="25.86">
        <route edges="D3 L32"/>
    </vehicle>
    <vehicle id="myflow27.4" type="motorcycle" depart="26.01">
        <route edges="D5 D511 D2 L21 L14"/>
    </vehicle>
    <vehicle id="myflow21.1" type="taxi" depart="26.31">
        <route edges="L65 L53 L34"/>
    </vehicle>
    <vehicle id="myflow99.5" type="motorcycle" depart="26.31">
        <route edges="L65 L53 L32"/>
    </vehicle>
    <vehicle id="myflow8.4" type="motorcycle" depart="26.38">
        <route edges="L23 D4"/>
    </vehicle>
    <vehicle id="myflow25.2" type="bus" depart="26.51">
        <route edges="D5 D511 D2 L21 L14"/>
    </vehicle>
    <vehicle id="myflow23.1" type="taxi" depart="26.95">
        <route edges="D3 L32"/>
    </vehicle>
    <vehicle id="myflow7.2" type="motorcycle" depart="26.98">
        <route edges="L65 L53 L34"/>
    </vehicle>
    <vehicle id="myflow91.3" type="motorcycle" depart="27.26">
        <route edges="L43 D4"/>
    </vehicle>
    <vehicle id="myflow.2" type="bus" depart="27.48">
        <route edges="L65 L53 L34"/>
    </vehicle>
    <vehicle id="myflow21.2" type="taxi" depart="28.02">
        <route edges="L65 L53 L34"/>
    </vehicle>
    <vehicle id="myflow72.1" type="taxi" depart="28.04">
        <route edges="D3 L35 L56"/>
    </vehicle>
    <vehicle id="myflow10.2" type="truck" depart="28.73">
        <route edges="L65 L53 L34"/>
    </vehicle>
    <vehicle id="myflow39.4" type="motorcycle" depart="29.15">
        <route edges="L14 L43 L35 L56"/>
    </vehicle>
    <vehicle id="myflow80.1" type="taxi" depart="29.17">
        <route edges="D3 L34 L41"/>
    </vehicle>
    <vehicle id="myflow64.3" type="taxi" depart="29.39">
        <route edges="D3 L32 L21"/>
    </vehicle>
    <vehicle id="myflow39.5" type="motorcycle" depart="29.50">
        <route edges="L14 L43 L35 L56"/>
    </vehicle>
    <vehicle id="myflow91.4" type="motorcycle" depart="29.89">
        <route edges="L43 D4"/>
    </vehicle>
    <vehicle id="myflow17.5" type="motorcycle" depart="29.95">
        <route edges="L12 D1 D115 D6"/>
    </vehicle>
    <vehicle id="myflow17.6" type="motorcycle" depart="30.03">
        <route edges="L12 D1 D115 D6"/>
    </vehicle>
    <vehicle id="myflow88.1" type="taxi" depart="30.26">
        <route edges="L23 L34"/>
    </vehicle>
    <vehicle id="myflow67.2" type="motorcycle" depart="30.26">
        <route edges="D3 L35 L56"/>
    </vehicle>
    <vehicle id="myflow24.0" type="taxi" depart="30.97">
        <route edges="L12 D1 D115 D6"/>
    </vehicle>
    <vehicle id="myflow11.2" type="truck" depart="31.16">
        <route edges="L23 D4"/>
    </vehicle>
    <vType id="police" minGap="2.00" vClass="emergency" guiShape="police"/>
    <vehicle id="myflow14.0" type="police" depart="31.84">
        <route edges="L23 D4"/>
    </vehicle>
    <vehicle id="myflow7.3" type="motorcycle" depart="32.14">
        <route edges="L65 L53 L34"/>
    </vehicle>
    <vehicle id="myflow67.3" type="motorcycle" depart="32.84">
        <route edges="D3 L35 L56"/>
    </vehicle>
    <vehicle id="myflow66.0" type="bicycle" depart="33.54">
        <route edges="D3 L35 L56"/>
    </vehicle>
    <vehicle id="myflow8.5" type="motorcycle" depart="33.95">
        <route edges="L23 D4"/>
    </vehicle>
    <vehicle id="myflow9.6" type="motorcycle" depart="35.00">
        <route edges="D3 L32"/>
    </vehicle>
    <vehicle id="myflow13.0" type="police" depart="35.08">
        <route edges="L65 L53 L34"/>
    </vehicle>
    <vehicle id="myflow9.7" type="motorcycle" depart="35.18">
        <route edges="D3 L32"/>
    </vehicle>
    <vehicle id="myflow91.5" type="motorcycle" depart="35.25">
        <route edges="L43 D4"/>
    </vehicle>
    <vehicle id="myflow7.4" type="motorcycle" depart="35.56">
        <route edges="L65 L53 L34"/>
    </vehicle>
    <vehicle id="myflow16.1" type="bicycle" depart="35.70">
        <route edges="L12 D1 D115 D6"/>
    </vehicle>
    <vehicle id="myflow15.0" type="police" depart="35.81">
        <route edges="D3 L32"/>
    </vehicle>
    <vehicle id="myflow99.6" type="motorcycle" depart="35.90">
        <route edges="L65 L53 L32"/>
    </vehicle>
    <vehicle id="myflow27.5" type="motorcycle" depart="36.17">
        <route edges="D5 D511 D2 L21 L14"/>
    </vehicle>
    <vehicle id="myflow33.4" type="motorcycle" depart="36.22">
        <route edges="D2 L23 D4"/>
    </vehicle>
    <vehicle id="myflow7.5" type="motorcycle" depart="36.35">
        <route edges="L65 L53 L34"/>
    </vehicle>
    <vehicle id="myflow7.6" type="motorcycle" depart="36.58">
        <route edges="L65 L53 L34"/>
    </vehicle>
    <vehicle id="myflow32.0" type="bicycle" depart="36.64">
        <route edges="D2 L23 D4"/>
    </vehicle>
    <vehicle id="myflow65.0" type="bus" depart="36.86">
        <route edges="D3 L35 L56"/>
    </vehicle>
    <vehicle id="myflow75.3" type="motorcycle" depart="37.22">
        <route edges="D3 L34 L41"/>
    </vehicle>
    <vehicle id="myflow9.8" type="motorcycle" depart="37.39">
        <route edges="D3 L32"/>
    </vehicle>
    <vehicle id="myflow91.6" type="motorcycle" depart="37.57">
        <route edges="L43 D4"/>
    </vehicle>
    <vehicle id="myflow33.5" type="motorcycle" depart="37.59">
        <route edges="D2 L23 D4"/>
    </vehicle>
    <vehicle id="myflow4.2" type="bicycle" depart="37.70">
        <route edges="L65 L53 L34"/>
    </vehicle>
    <vehicle id="myflow4.3" type="bicycle" depart="37.74">
        <route edges="L65 L53 L34"/>
    </vehicle>
    <vehicle id="myflow21.3" type="taxi" depart="37.86">
        <route edges="L65 L53 L34"/>
    </vehicle>
    <vehicle id="myflow33.6" type="motorcycle" depart="37.87">
        <route edges="D2 L23 D4"/>
    </vehicle>
    <vehicle id="myflow33.7" type="motorcycle" depart="37.96">
        <route edges="D2 L23 D4"/>
    </vehicle>
    <vehicle id="myflow21.4" type="taxi" depart="38.07">
        <route edges="L65 L53 L34"/>
    </vehicle>
    <vehicle id="myflow84.2" type="truck" depart="38.55">
        <route edges="L23 L34"/>
    </vehicle>
    <vehicle id="myflow67.4" type="motorcycle" depart="38.67">
        <route edges="D3 L35 L56"/>
    </vehicle>
    <vehicle id="myflow76.2" type="truck" depart="38.76">
        <route edges="D3 L34 L41"/>
    </vehicle>
    <vehicle id="myflow82.0" type="bicycle" depart="38.97">
        <route edges="L23 L34"/>
    </vehicle>
    <vehicle id="myflow53.0" type="firebrigade" depart="39.00">
        <route edges="D5 D511 D2 L21 L14"/>
    </vehicle>
    <vehicle id="myflow3.1" type="bus" depart="39.03">
        <route edges="D3 L32"/>
    </vehicle>
    <vehicle id="myflow17.7" type="motorcycle" depart="39.14">
        <route edges="L12 D1 D115 D6"/>
    </vehicle>
    <vehicle id="myflow39.6" type="motorcycle" depart="39.29">
        <route edges="L14 L43 L35 L56"/>
    </vehicle>
    <vehicle id="myflow23.2" type="taxi" depart="39.79">
        <route edges="D3 L32"/>
    </vehicle>
    <vehicle id="myflow52.0" type="emergency" depart="40.20">
        <route edges="L12 D1 D115 D6"/>
    </vehicle>
    <vehicle id="myflow98.0" type="bicycle" depart="40.97">
        <route edges="L65 L53 L32"/>
    </vehicle>
    <vehicle id="myflow60.2" type="truck" depart="41.07">
        <route edges="D3 L32"/>
    </vehicle>
    <vehicle id="myflow80.2" type="taxi" depart="42.04">
        <route edges="D3 L34 L41"/>
    </vehicle>
    <vehicle id="myflow28.1" type="truck" depart="42.17">
        <route edges="D5 D511 D2 L21 L14"/>
    </vehicle>
    <vehicle id="myflow83.2" type="motorcycle" depart="42.24">
        <route edges="L23 L34"/>
    </vehicle>
    <vehicle id="myflow99.7" type="motorcycle" depart="42.31">
        <route edges="L65 L53 L32"/>
    </vehicle>
    <vehicle id="myflow91.7" type="motorcycle" depart="42.40">
        <route edges="L43 D4"/>
    </vehicle>
    <vehicle id="myflow99.8" type="motorcycle" depart="42.53">
        <route edges="L65 L53 L32"/>
    </vehicle>
    <vehicle id="myflow91.8" type="motorcycle" depart="42.56">
        <route edges="L43 D4"/>
    </vehicle>
    <vehicle id="myflow17.8" type="motorcycle" depart="42.68">
        <route edges="L12 D1 D115 D6"/>
    </vehicle>
    <vehicle id="myflow100.2" type="truck" depart="43.31">
        <route edges="L65 L53 L32"/>
    </vehicle>
    <vehicle id="myflow80.3" type="taxi" depart="43.82">
        <route edges="D3 L34 L41"/>
    </vehicle>
    <vehicle id="myflow96.1" type="taxi" depart="44.45">
        <route edges="L43 D4"/>
    </vehicle>
    <vehicle id="myflow30.0" type="taxi" depart="44.64">
        <route edges="D5 D511 D2 L21 L14"/>
    </vehicle>
    <vehicle id="myflow33.8" type="motorcycle" depart="44.72">
        <route edges="D2 L23 D4"/>
    </vehicle>
    <vehicle id="myflow7.7" type="motorcycle" depart="44.80">
        <route edges="L65 L53 L34"/>
    </vehicle>
    <vehicle id="myflow8.6" type="motorcycle" depart="44.99">
        <route edges="L23 D4"/>
    </vehicle>
    <vehicle id="myflow27.6" type="motorcycle" depart="45.59">
        <route edges="D5 D511 D2 L21 L14"/>
    </vehicle>
    <vehicle id="myflow92.2" type="truck" depart="46.74">
        <route edges="L43 D4"/>
    </vehicle>
    <vehicle id="myflow99.9" type="motorcycle" depart="46.80">
        <route edges="L65 L53 L32"/>
    </vehicle>
    <vehicle id="myflow27.7" type="motorcycle" depart="46.85">
        <route edges="D5 D511 D2 L21 L14"/>
    </vehicle>
    <vehicle id="myflow5.2" type="bicycle" depart="46.90">
        <route edges="L23 D4"/>
    </vehicle>
    <vehicle id="myflow99.10" type="motorcycle" depart="46.93">
        <route edges="L65 L53 L32"/>
    </vehicle>
    <vehicle id="myflow2.1" type="bus" depart="47.01">
        <route edges="L23 D4"/>
    </vehicle>
    <vehicle id="myflow26.1" type="bicycle" depart="47.16">
        <route edges="D5 D511 D2 L21 L14"/>
    </vehicle>
    <vehicle id="myflow99.11" type="motorcycle" depart="47.47">
        <route edges="L65 L53 L32"/>
    </vehicle>
    <vehicle id="myflow59.6" type="motorcycle" depart="47.47">
        <route edges="D3 L32 L21"/>
    </vehicle>
    <vehicle id="myflow76.3" type="truck" depart="47.57">
        <route edges="D3 L34 L41"/>
    </vehicle>
    <vehicle id="myflow27.8" type="motorcycle" depart="47.65">
        <route edges="D5 D511 D2 L21 L14"/>
    </vehicle>
    <vehicle id="myflow26.2" type="bicycle" depart="47.95">
        <route edges="D5 D511 D2 L21 L14"/>
    </vehicle>
    <vehicle id="myflow39.7" type="motorcycle" depart="48.37">
        <route edges="L14 L43 L35 L56"/>
    </vehicle>
    <vehicle id="myflow64.4" type="taxi" depart="48.42">
        <route edges="D3 L32 L21"/>
    </vehicle>
    <vehicle id="myflow104.1" type="taxi" depart="48.47">
        <route edges="L65 L53 L32"/>
    </vehicle>
    <vehicle id="myflow88.2" type="taxi" depart="48.52">
        <route edges="L23 L34"/>
    </vehicle>
    <vehicle id="myflow88.3" type="taxi" depart="48.54">
        <route edges="L23 L34"/>
    </vehicle>
    <vehicle id="myflow20.0" type="police" depart="48.96">
        <route edges="L12 D1 D115 D6"/>
    </vehicle>
    <vehicle id="myflow7.8" type="motorcycle" depart="49.05">
        <route edges="L65 L53 L34"/>
    </vehicle>
    <vehicle id="myflow75.4" type="motorcycle" depart="49.06">
        <route edges="D3 L34 L41"/>
    </vehicle>
    <vehicle id="myflow69.0" type="police" depart="49.06">
        <route edges="D3 L35 L56"/>
    </vehicle>
    <vehicle id="myflow75.5" type="motorcycle" depart="49.22">
        <route edges="D3 L34 L41"/>
    </vehicle>
    <vehicle id="myflow27.9" type="motorcycle" depart="49.53">
        <route edges="D5 D511 D2 L21 L14"/>
    </vehicle>
    <vehicle id="myflow10.3" type="truck" depart="49.80">
        <route edges="L65 L53 L34"/>
    </vehicle>
    <vehicle id="myflow28.2" type="truck" depart="49.85">
        <route edges="D5 D511 D2 L21 L14"/>
    </vehicle>
    <vehicle id="myflow67.5" type="motorcycle" depart="49.85">
        <route edges="D3 L35 L56"/>
    </vehicle>
    <vehicle id="myflow27.10" type="motorcycle" depart="49.86">
        <route edges="D5 D511 D2 L21 L14"/>
    </vehicle>
    <vehicle id="myflow83.3" type="motorcycle" depart="50.39">
        <route edges="L23 L34"/>
    </vehicle>
    <vehicle id="myflow51.0" type="firebrigade" depart="50.43">
        <route edges="L12 D1 D115 D6"/>
    </vehicle>
    <vehicle id="myflow57.2" type="bus" depart="50.60">
        <route edges="D3 L32 L21"/>
    </vehicle>
    <vehicle id="myflow11.3" type="truck" depart="50.70">
        <route edges="L23 D4"/>
    </vehicle>
    <vehicle id="myflow17.9" type="motorcycle" depart="50.82">
        <route edges="L12 D1 D115 D6"/>
    </vehicle>
    <vehicle id="myflow52.1" type="emergency" depart="50.83">
        <route edges="L12 D1 D115 D6"/>
    </vehicle>
    <vehicle id="myflow8.7" type="motorcycle" depart="51.33">
        <route edges="L23 D4"/>
    </vehicle>
    <vehicle id="myflow8.8" type="motorcycle" depart="51.68">
        <route edges="L23 D4"/>
    </vehicle>
    <vehicle id="myflow70.1" type="firebrigade" depart="51.85">
        <route edges="D3 L35 L56"/>
    </vehicle>
    <vehicle id="myflow8.9" type="motorcycle" depart="51.87">
        <route edges="L23 D4"/>
    </vehicle>
    <vehicle id="myflow33.9" type="motorcycle" depart="52.03">
        <route edges="D2 L23 D4"/>
    </vehicle>
    <vehicle id="myflow76.4" type="truck" depart="52.45">
        <route edges="D3 L34 L41"/>
    </vehicle>
    <vehicle id="myflow25.3" type="bus" depart="52.47">
        <route edges="D5 D511 D2 L21 L14"/>
    </vehicle>
    <vehicle id="myflow7.9" type="motorcycle" depart="52.49">
        <route edges="L65 L53 L34"/>
    </vehicle>
    <vehicle id="myflow33.10" type="motorcycle" depart="52.62">
        <route edges="D2 L23 D4"/>
    </vehicle>
    <vehicle id="myflow100.3" type="truck" depart="52.64">
        <route edges="L65 L53 L32"/>
    </vehicle>
    <vehicle id="myflow21.5" type="taxi" depart="52.77">
        <route edges="L65 L53 L34"/>
    </vehicle>
    <vehicle id="myflow91.9" type="motorcycle" depart="53.26">
        <route edges="L43 D4"/>
    </vehicle>
    <vehicle id="myflow22.0" type="taxi" depart="53.29">
        <route edges="L23 D4"/>
    </vehicle>
    <vehicle id="myflow99.12" type="motorcycle" depart="53.44">
        <route edges="L65 L53 L32"/>
    </vehicle>
    <vehicle id="myflow91.10" type="motorcycle" depart="53.56">
        <route edges="L43 D4"/>
    </vehicle>
    <vehicle id="myflow6.0" type="bicycle" depart="53.69">
        <route edges="D3 L32"/>
    </vehicle>
    <vehicle id="myflow9.9" type="motorcycle" depart="53.94">
        <route edges="D3 L32"/>
    </vehicle>
    <vehicle id="myflow70.2" type="firebrigade" depart="54.11">
        <route edges="D3 L35 L56"/>
    </vehicle>
    <vehicle id="myflow17.10" type="motorcycle" depart="54.24">
        <route edges="L12 D1 D115 D6"/>
    </vehicle>
    <vehicle id="myflow4.4" type="bicycle" depart="54.47">
        <route edges="L65 L53 L34"/>
    </vehicle>
    <vehicle id="myflow91.11" type="motorcycle" depart="54.56">
        <route edges="L43 D4"/>
    </vehicle>
    <vehicle id="myflow10.4" type="truck" depart="55.11">
        <route edges="L65 L53 L34"/>
    </vehicle>
    <vehicle id="myflow67.6" type="motorcycle" depart="55.12">
        <route edges="D3 L35 L56"/>
    </vehicle>
    <vehicle id="myflow76.5" type="truck" depart="55.13">
        <route edges="D3 L34 L41"/>
    </vehicle>
    <vehicle id="myflow7.10" type="motorcycle" depart="55.39">
        <route edges="L65 L53 L34"/>
    </vehicle>
    <vehicle id="myflow79.1" type="emergency" depart="55.54">
        <route edges="D3 L34 L41"/>
    </vehicle>
    <vehicle id="myflow37.3" type="bus" depart="55.65">
        <route edges="L14 L43 L35 L56"/>
    </vehicle>
    <vehicle id="myflow27.11" type="motorcycle" depart="55.81">
        <route edges="D5 D511 D2 L21 L14"/>