<?xml version="1.0" encoding="UTF-8"?>

<!-- generated on Fri Jan 11 22:21:21 2019 by SUMO duarouter Version 0.32.0
<?xml version="1.0" encoding="UTF-8"?>

<configuration xmlns:xsi="http://www.w3.org/2001/XMLSchema-instance" xsi:noNamespaceSchemaLocation="http://sumo.dlr.de/xsd/duarouterConfiguration.xsd">

    <input>
        <net-file value="net.net.xml"/>
        <route-files value="trips.trips.xml"/>
    </input>

    <output>
        <output-file value="result.rou.xml"/>
        <alternatives-output value="result.rou.alt.xml"/>
    </output>

</configuration>
-->

<routes xmlns:xsi="http://www.w3.org/2001/XMLSchema-instance" xsi:noNamespaceSchemaLocation="http://sumo.dlr.de/xsd/routes_file.xsd">
<vType id="bus" vClass="bus" guiShape="bus" minGap="2" length="9.44" width="2.45" height="3.1"
latAlignment="left" lcPushy="1"/>
<flow id="myflow" begin="0" end="3000" number="70" from="gneE81" to="gneE63" type="bus"/>
<flow id="myflow1" begin="0" end="3000" number="70" from="gneE64" to="gneE80" type="bus"/>
<flow id="myflow2" begin="500" end="4000" number="70" from="gneE52" to="gneE20" type="bus"/>
<flow id="myflow3" begin="500" end="4000" number="70" from="gneE0" to="gneE51" type="bus"/>

<flow id="myflow4" begin="2000" end="4000" number="70" from="gneE81" to="gneE63" type="bus"/>
<flow id="myflow5" begin="2000" end="4000" number="70" from="gneE64" to="gneE80" type="bus"/>
<flow id="myflow6" begin="2000" end="4000" number="70" from="gneE52" to="gneE20" type="bus"/>
<flow id="myflow7" begin="2000" end="4000" number="70" from="gneE0" to="gneE51" type="bus"/>

<flow id="myflow8" begin="0" end="5000" number="70" from="gneE81" to="gneE51" type="bus"/>
<flow id="myflow9" begin="0" end="5000" number="70" from="gneE81" to="gneE20" type="bus"/>
<flow id="myflow10" begin="0" end="5000" number="70" from="gneE64" to="gneE20" type="bus"/>
<flow id="myflow11" begin="0" end="5000" number="70" from="gneE64" to="gneE51" type="bus"/>

<flow id="myflow93" begin="0" end="5000" number="70" from="gneE0" to="gneE63" type="bus"/>
<flow id="myflow94" begin="0" end="5000" number="70" from="gneE0" to="gneE80" type="bus"/>
<flow id="myflow95" begin="0" end="5000" number="70" from="gneE52" to="gneE63" type="bus"/>
<flow id="myflow96" begin="0" end="5000" number="70" from="gneE52" to="gneE80" type="bus"/>

<vType id="bicycle" vClass="bicycle" minGap="0.5" latAlignment="arbitrary" lcPushy="1"/>
<flow id="myflow12" begin="0" end="3000" number="15" from="gneE81" to="gneE63" type="bicycle"/>
<flow id="myflow13" begin="0" end="3000" number="15" from="gneE64" to="gneE80" type="bicycle"/>
<flow id="myflow14" begin="500" end="4000" number="15" from="gneE52" to="gneE20" type="bicycle"/>
<flow id="myflow15" begin="500" end="4000" number="15" from="gneE0" to="gneE51" type="bicycle"/>

<flow id="myflow16" begin="2000" end="4000" number="15" from="gneE81" to="gneE63" type="bicycle"/>
<flow id="myflow17" begin="2000" end="4000" number="15" from="gneE64" to="gneE80" type="bicycle"/>
<flow id="myflow18" begin="2000" end="4000" number="15" from="gneE52" to="gneE20" type="bicycle"/>
<flow id="myflow19" begin="2000" end="4000" number="15" from="gneE0" to="gneE51" type="bicycle"/>

<flow id="myflow20" begin="0" end="5000" number="15" from="gneE81" to="gneE51" type="bicycle"/>
<flow id="myflow21" begin="0" end="5000" number="15" from="gneE81" to="gneE20" type="bicycle"/>
<flow id="myflow22" begin="0" end="5000" number="15" from="gneE64" to="gneE20" type="bicycle"/>
<flow id="myflow23" begin="0" end="5000" number="15" from="gneE64" to="gneE51" type="bicycle"/>

<flow id="myflow97" begin="0" end="5000" number="15" from="gneE0" to="gneE63" type="bicycle"/>
<flow id="myflow98" begin="0" end="5000" number="15" from="gneE0" to="gneE80" type="bicycle"/>
<flow id="myflow99" begin="0" end="5000" number="15" from="gneE52" to="gneE63" type="bicycle"/>
<flow id="myflow100" begin="0" end="5000" number="15" from="gneE52" to="gneE80" type="bicycle"/>

<vType id="motorcycle" vClass="motorcycle" minGap="0.5" length="2.034" width="0.74" height="1.152"
latAlignment="right" lcPushy="1"/>
<flow id="myflow24" begin="0" end="3000" number="150" from="gneE81" to="gneE63" type="motorcycle"/>
<flow id="myflow25" begin="0" end="3000" number="150" from="gneE64" to="gneE80" type="motorcycle"/>
<flow id="myflow26" begin="500" end="4000" number="150" from="gneE52" to="gneE20" type="motorcycle"/>
<flow id="myflow27" begin="500" end="4000" number="150" from="gneE0" to="gneE51" type="motorcycle"/>

<flow id="myflow28" begin="2000" end="4000" number="150" from="gneE81" to="gneE63" type="motorcycle"/>
<flow id="myflow29" begin="2000" end="4000" number="150" from="gneE64" to="gneE80" type="motorcycle"/>
<flow id="myflow30" begin="2000" end="4000" number="150" from="gneE52" to="gneE20" type="motorcycle"/>
<flow id="myflow31" begin="2000" end="4000" number="150" from="gneE0" to="gneE51" type="motorcycle"/>

<flow id="myflow32" begin="0" end="5000" number="250" from="gneE81" to="gneE51" type="motorcycle"/>
<flow id="myflow33" begin="0" end="5000" number="250" from="gneE81" to="gneE20" type="motorcycle"/>
<flow id="myflow34" begin="0" end="5000" number="250" from="gneE64" to="gneE20" type="motorcycle"/>
<flow id="myflow35" begin="0" end="5000" number="250" from="gneE64" to="gneE51" type="motorcycle"/>

<flow id="myflo" begin="0" end="5000" number="250" from="gneE0" to="gneE63" type="motorcycle"/>
<flow id="myflo2" begin="0" end="5000" number="250" from="gneE0" to="gneE80" type="motorcycle"/>
<flow id="myflo3" begin="0" end="5000" number="250" from="gneE52" to="gneE63" type="motorcycle"/>
<flow id="myflo4" begin="0" end="5000" number="250" from="gneE52" to="gneE80" type="motorcycle"/>

<vType id="truckv1" vClass="truck" guiShape="truck" minGap="2" length="4.3" width="1.8" height="2.0"
latAlignment="left" lcPushy="1"/>
<flow id="myflow36" begin="0" end="3000" number="30" from="gneE81" to="gneE63" type="truckv1"/>
<flow id="myflow37" begin="0" end="3000" number="30" from="gneE64" to="gneE80" type="truckv1"/>
<flow id="myflow38" begin="500" end="4000" number="30" from="gneE52" to="gneE20" type="truckv1"/>
<flow id="myflow39" begin="500" end="4000" number="30" from="gneE0" to="gneE51" type="truckv1"/>

<flow id="myflow40" begin="2000" end="4000" number="30" from="gneE81" to="gneE63" type="truckv1"/>
<flow id="myflow41" begin="2000" end="4000" number="30" from="gneE64" to="gneE80" type="truckv1"/>
<flow id="myflow42" begin="2000" end="4000" number="30" from="gneE52" to="gneE20" type="truckv1"/>
<flow id="myflow43" begin="2000" end="4000" number="30" from="gneE0" to="gneE51" type="truckv1"/>

<flow id="myflow44" begin="0" end="5000" number="30" from="gneE81" to="gneE51" type="truckv1"/>
<flow id="myflow45" begin="0" end="5000" number="30" from="gneE81" to="gneE20" type="truckv1"/>
<flow id="myflow46" begin="0" end="5000" number="30" from="gneE64" to="gneE20" type="truckv1"/>
<flow id="myflow47" begin="0" end="5000" number="30" from="gneE64" to="gneE51" type="truckv1"/>

<flow id="myflo5" begin="0" end="5000" number="30" from="gneE0" to="gneE63" type="truckv1"/>
<flow id="myflo6" begin="0" end="5000" number="30" from="gneE0" to="gneE80" type="truckv1"/>
<flow id="myflo7" begin="0" end="5000" number="30" from="gneE52" to="gneE63" type="truckv1"/>
<flow id="myflo8" begin="0" end="5000" number="30" from="gneE52" to="gneE80" type="truckv1"/>

<vType id="truckv2" vClass="truck" guiShape="truck" minGap="2" length="9.5" width="2.35" height="2.6"
latAlignment="left" lcPushy="1"/>
<flow id="myflow48" begin="0" end="3000" number="30" from="gneE81" to="gneE63" type="truckv2"/>
<flow id="myflow49" begin="0" end="3000" number="30" from="gneE64" to="gneE80" type="truckv2"/>
<flow id="myflow50" begin="500" end="4000" number="30" from="gneE52" to="gneE20" type="truckv2"/>
<flow id="myflow51" begin="500" end="4000" number="30" from="gneE0" to="gneE51" type="truckv2"/>

<flow id="myflow52" begin="2000" end="4000" number="30" from="gneE81" to="gneE63" type="truckv2"/>
<flow id="myflow53" begin="2000" end="4000" number="30" from="gneE64" to="gneE80" type="truckv2"/>
<flow id="myflow54" begin="2000" end="4000" number="30" from="gneE52" to="gneE20" type="truckv2"/>
<flow id="myflow55" begin="2000" end="4000" number="30" from="gneE0" to="gneE51" type="truckv2"/>

<flow id="myflow56" begin="0" end="5000" number="30" from="gneE81" to="gneE51" type="truckv2"/>
<flow id="myflow57" begin="0" end="5000" number="30" from="gneE81" to="gneE20" type="truckv2"/>
<flow id="myflow58" begin="0" end="5000" number="30" from="gneE64" to="gneE20" type="truckv2"/>
<flow id="myflow59" begin="0" end="5000" number="30" from="gneE64" to="gneE51" type="truckv2"/>

<flow id="myflo9" begin="0" end="5000" number="30" from="gneE0" to="gneE63" type="truckv2"/>
<flow id="myflo10" begin="0" end="5000" number="30" from="gneE0" to="gneE80" type="truckv2"/>
<flow id="myflo11" begin="0" end="5000" number="30" from="gneE52" to="gneE63" type="truckv2"/>
<flow id="myflo12" begin="0" end="5000" number="30" from="gneE52" to="gneE80" type="truckv2"/>

<vType id="police" vClass="emergency" guiShape="police" minGap="2"
latAlignment="arbitrary" lcPushy="1"/>
<vType id="firebrigade" vClass="emergency" guiShape="firebrigade"
latAlignment="arbitrary" lcPushy="1"/>
<vType id="emergency" vClass="emergency" guiShape="emergency"
latAlignment="arbitrary" lcPushy="1"/>
<flow id="myflow60" begin="0" end="3000" number="5" from="gneE81" to="gneE63" type="police"/>
<flow id="myflow61" begin="0" end="3000" number="5" from="gneE81" to="gneE63" type="firebrigade"/>
<flow id="myflow62" begin="0" end="3000" number="5" from="gneE81" to="gneE63" type="emergency"/>
<flow id="myflow63" begin="0" end="3000" number="5" from="gneE64" to="gneE80" type="police"/>
<flow id="myflow64" begin="0" end="3000" number="5" from="gneE64" to="gneE80" type="firebrigade"/>
<flow id="myflow65" begin="0" end="3000" number="5" from="gneE64" to="gneE80" type="emergency"/>
<flow id="myflow66" begin="0" end="3000" number="5" from="gneE52" to="gneE20" type="police"/>
<flow id="myflow67" begin="0" end="3000" number="5" from="gneE52" to="gneE20" type="firebrigade"/>
<flow id="myflow68" begin="0" end="3000" number="5" from="gneE52" to="gneE20" type="emergency"/>
<flow id="myflow69" begin="0" end="3000" number="5" from="gneE0" to="gneE51" type="police"/>
<flow id="myflow70" begin="0" end="3000" number="5" from="gneE0" to="gneE51" type="firebrigade"/>
<flow id="myflow71" begin="0" end="3000" number="5" from="gneE0" to="gneE51" type="emergency"/>
<flow id="myflow72" begin="0" end="3000" number="5" from="T1" to="gneE51" type="police"/>
<flow id="myflow73" begin="0" end="3000" number="5" from="T1" to="gneE51" type="firebrigade"/>
<flow id="myflow74" begin="0" end="3000" number="5" from="T1" to="gneE51" type="emergency"/>
<flow id="myflow75" begin="0" end="3000" number="5" from="T2" to="gneE51" type="police"/>
<flow id="myflow76" begin="0" end="3000" number="5" from="T2" to="gneE51" type="firebrigade"/>
<flow id="myflow77" begin="0" end="3000" number="5" from="T2" to="gneE51" type="emergency"/>
<flow id="myflow78" begin="0" end="3000" number="5" from="T8" to="gneE51" type="police"/>
<flow id="myflow79" begin="0" end="3000" number="5" from="T8" to="gneE51" type="firebrigade"/>
<flow id="myflow80" begin="0" end="3000" number="5" from="T8" to="gneE51" type="emergency"/>

<vType id="taxi" vClass="taxi" guiShape="passenger/van" minGap="2"
latAlignment="left" lcPushy="1"/>
<flow id="myflow81" begin="0" end="3000" number="30" from="gneE81" to="gneE63" type="taxi"/>
<flow id="myflow82" begin="0" end="3000" number="30" from="gneE64" to="gneE80" type="taxi"/>
<flow id="myflow83" begin="500" end="4000" number="30" from="gneE52" to="gneE20" type="taxi"/>
<flow id="myflow84" begin="500" end="4000" number="30" from="gneE0" to="gneE51" type="taxi"/>

<flow id="myflow85" begin="2000" end="4000" number="30" from="gneE81" to="gneE63" type="taxi"/>
<flow id="myflow86" begin="2000" end="4000" number="30" from="gneE64" to="gneE80" type="taxi"/>
<flow id="myflow87" begin="2000" end="4000" number="30" from="gneE52" to="gneE20" type="taxi"/>
<flow id="myflow88" begin="2000" end="4000" number="30" from="gneE0" to="gneE51" type="taxi"/>

<flow id="myflow89" begin="0" end="5000" number="30" from="gneE81" to="gneE51" type="taxi"/>
<flow id="myflow90" begin="0" end="5000" number="30" from="gneE81" to="gneE20" type="taxi"/>
<flow id="myflow91" begin="0" end="5000" number="30" from="gneE64" to="gneE20" type="taxi"/>
<flow id="myflow92" begin="0" end="5000" number="30" from="gneE64" to="gneE51" type="taxi"/>

<flow id="myflo13" begin="0" end="5000" number="30" from="gneE0" to="gneE63" type="taxi"/>
<flow id="myflo14" begin="0" end="5000" number="30" from="gneE0" to="gneE80" type="taxi"/>
<flow id="myflo15" begin="0" end="5000" number="30" from="gneE52" to="gneE63" type="taxi"/>
<flow id="myflo16" begin="0" end="5000" number="30" from="gneE52" to="gneE80" type="taxi"/>

<!-- simulation v2 -->
<flow id="myfl" begin="6000" end="9000" number="70" from="gneE81" to="gneE63" type="bus"/>
<flow id="myfl1" begin="6000" end="9000" number="70" from="gneE64" to="gneE80" type="bus"/>
<flow id="myfl2" begin="6500" end="10000" number="70" from="gneE52" to="gneE20" type="bus"/>
<flow id="myfl3" begin="6500" end="10000" number="70" from="gneE0" to="gneE51" type="bus"/>

<flow id="myfl8" begin="6000" end="11000" number="70" from="gneE81" to="gneE51" type="bus"/>
<flow id="myfl9" begin="6000" end="11000" number="70" from="gneE81" to="gneE20" type="bus"/>
<flow id="myfl10" begin="6000" end="11000" number="70" from="gneE64" to="gneE20" type="bus"/>
<flow id="myfl11" begin="6000" end="11000" number="70" from="gneE64" to="gneE51" type="bus"/>

<!-- <vType id="bicycle" vClass="bicycle" minGap="0.5" latAlignment="arbitrary" lcPushy="1"/> -->
<flow id="myfl12" begin="6000" end="9000" number="15" from="gneE81" to="gneE63" type="bicycle"/>
<flow id="myfl13" begin="6000" end="9000" number="15" from="gneE64" to="gneE80" type="bicycle"/>
<flow id="myfl14" begin="6500" end="10000" number="15" from="gneE52" to="gneE20" type="bicycle"/>
<flow id="myfl15" begin="6500" end="10000" number="15" from="gneE0" to="gneE51" type="bicycle"/>

<flow id="myfl16" begin="6000" end="11000" number="15" from="gneE81" to="gneE51" type="bicycle"/>
<flow id="myfl17" begin="6000" end="11000" number="15" from="gneE81" to="gneE20" type="bicycle"/>
<flow id="myfl18" begin="6000" end="11000" number="15" from="gneE64" to="gneE20" type="bicycle"/>
<flow id="myfl19" begin="6000" end="11000" number="15" from="gneE64" to="gneE51" type="bicycle"/>

<!-- <vType id="motorcycle" vClass="motorcycle" minGap="0.5" length="2.034" width="0.74" height="1.152" latAlignment="right" lcPushy="1"/> -->
<flow id="myfl20" begin="6000" end="9000" number="150" from="gneE81" to="gneE63" type="motorcycle"/>
<flow id="myfl21" begin="6000" end="9000" number="150" from="gneE64" to="gneE80" type="motorcycle"/>
<flow id="myfl22" begin="6500" end="10000" number="150" from="gneE52" to="gneE20" type="motorcycle"/>
<flow id="myfl23" begin="6500" end="10000" number="150" from="gneE0" to="gneE51" type="motorcycle"/>

<flow id="myfl24" begin="6000" end="11000" number="150" from="gneE81" to="gneE51" type="motorcycle"/>
<flow id="myfl25" begin="6000" end="11000" number="150" from="gneE81" to="gneE20" type="motorcycle"/>
<flow id="myfl26" begin="6000" end="11000" number="150" from="gneE64" to="gneE20" type="motorcycle"/>
<flow id="myfl27" begin="6000" end="11000" number="150" from="gneE64" to="gneE51" type="motorcycle"/>

<!-- <vType id="truckv1" vClass="truck" guiShape="truck" minGap="2" length="4.3" width="1.8" height="2.0" latAlignment="left" lcPushy="1"/> -->
<flow id="myfl28" begin="6000" end="9000" number="30" from="gneE81" to="gneE63" type="truckv1"/>
<flow id="myfl29" begin="6000" end="9000" number="30" from="gneE64" to="gneE80" type="truckv1"/>
<flow id="myfl30" begin="6500" end="10000" number="30" from="gneE52" to="gneE20" type="truckv1"/>
<flow id="myfl31" begin="6500" end="10000" number="30" from="gneE0" to="gneE51" type="truckv1"/>

<flow id="myfl32" begin="6000" end="11000" number="30" from="gneE81" to="gneE51" type="truckv1"/>
<flow id="myfl33" begin="6000" end="11000" number="30" from="gneE81" to="gneE20" type="truckv1"/>
<flow id="myfl34" begin="6000" end="11000" number="30" from="gneE64" to="gneE20" type="truckv1"/>
<flow id="myfl35" begin="6000" end="11000" number="30" from="gneE64" to="gneE51" type="truckv1"/>

<!-- <vType id="truckv2" vClass="truck" guiShape="truck" minGap="2" length="9.5" width="2.35" height="2.6" latAlignment="left" lcPushy="1"/> -->
<flow id="myfl36" begin="6000" end="9000" number="30" from="gneE81" to="gneE63" type="truckv2"/>
<flow id="myfl37" begin="6000" end="9000" number="30" from="gneE64" to="gneE80" type="truckv2"/>
<flow id="myfl38" begin="6500" end="10000" number="30" from="gneE52" to="gneE20" type="truckv2"/>
<flow id="myfl39" begin="6500" end="10000" number="30" from="gneE0" to="gneE51" type="truckv2"/>

<flow id="myfl40" begin="6000" end="11000" number="30" from="gneE81" to="gneE51" type="truckv2"/>
<flow id="myfl41" begin="6000" end="11000" number="30" from="gneE81" to="gneE20" type="truckv2"/>
<flow id="myfl42" begin="6000" end="11000" number="30" from="gneE64" to="gneE20" type="truckv2"/>
<flow id="myfl43" begin="6000" end="11000" number="30" from="gneE64" to="gneE51" type="truckv2"/>

<!-- <vType id="police" vClass="emergency" guiShape="police" minGap="2"
latAlignment="arbitrary" lcPushy="1"/>
<vType id="firebrigade" vClass="emergency" guiShape="firebrigade"
latAlignment="arbitrary" lcPushy="1"/>
<vType id="emergency" vClass="emergency" guiShape="emergency"
latAlignment="arbitrary" lcPushy="1"/> -->
<flow id="my29" begin="6000" end="10000" number="10" from="gneE81" to="gneE63" type="police"/>
<flow id="my30" begin="6000" end="10000" number="10" from="gneE81" to="gneE63" type="firebrigade"/>
<flow id="my31" begin="6000" end="10000" number="10" from="gneE81" to="gneE63" type="emergency"/>
<flow id="my32" begin="6000" end="10000" number="10" from="gneE64" to="gneE80" type="police"/>
<flow id="my33" begin="6000" end="10000" number="10" from="gneE64" to="gneE80" type="firebrigade"/>
<flow id="my34" begin="6000" end="10000" number="10" from="gneE64" to="gneE80" type="emergency"/>
<flow id="my35" begin="6000" end="10000" number="10" from="gneE52" to="gneE20" type="police"/>
<flow id="my36" begin="6000" end="10000" number="10" from="gneE52" to="gneE20" type="firebrigade"/>
<flow id="my37" begin="6000" end="10000" number="10" from="gneE52" to="gneE20" type="emergency"/>
<flow id="my38" begin="6000" end="10000" number="10" from="gneE0" to="gneE51" type="police"/>
<flow id="my39" begin="6000" end="10000" number="10" from="gneE0" to="gneE51" type="firebrigade"/>
<flow id="my40" begin="6000" end="10000" number="10" from="gneE0" to="gneE51" type="emergency"/>
<flow id="my41" begin="6000" end="10000" number="10" from="T1" to="gneE51" type="police"/>
<flow id="my42" begin="6000" end="10000" number="10" from="T1" to="gneE51" type="firebrigade"/>
<flow id="my43" begin="6000" end="10000" number="10" from="T1" to="gneE51" type="emergency"/>
<flow id="my44" begin="6000" end="10000" number="10" from="T2" to="gneE51" type="police"/>
<flow id="my45" begin="6000" end="10000" number="10" from="T2" to="gneE51" type="firebrigade"/>
<flow id="my46" begin="6000" end="10000" number="10" from="T2" to="gneE51" type="emergency"/>
<flow id="my47" begin="6000" end="10000" number="10" from="T8" to="gneE51" type="police"/>
<flow id="my48" begin="6000" end="10000" number="10" from="T8" to="gneE51" type="firebrigade"/>
<flow id="my49" begin="6000" end="10000" number="10" from="T8" to="gneE51" type="emergency"/>

<!-- <vType id="taxi" vClass="taxi" guiShape="passenger/van" minGap="2" latAlignment="left" lcPushy="1"/> -->
<flow id="myfl44" begin="6000" end="9000" number="30" from="gneE81" to="gneE63" type="taxi"/>
<flow id="myfl45" begin="6000" end="9000" number="30" from="gneE64" to="gneE80" type="taxi"/>
<flow id="myfl46" begin="6500" end="10000" number="30" from="gneE52" to="gneE20" type="taxi"/>
<flow id="myfl47" begin="6500" end="10000" number="30" from="gneE0" to="gneE51" type="taxi"/>

<flow id="myfl48" begin="6000" end="11000" number="30" from="gneE81" to="gneE51" type="taxi"/>
<flow id="myfl49" begin="6000" end="11000" number="30" from="gneE81" to="gneE20" type="taxi"/>
<flow id="myfl50" begin="6000" end="11000" number="30" from="gneE64" to="gneE20" type="taxi"/>
<flow id="myfl51" begin="6000" end="11000" number="30" from="gneE64" to="gneE51" type="taxi"/>

<!-- simulation v3 -->
    <!-- <vType id="bus" vClass="bus" guiShape="bus" minGap="2" length="9.44" width="2.45" height="3.1" latAlignment="left" lcPushy="1"/> -->
    <flow id="myf" begin="13000" end="18000" number="70" from="gneE81" to="gneE63" type="bus"/>
    <flow id="myf1" begin="13000" end="18000" number="70" from="gneE64" to="gneE80" type="bus"/>
    <flow id="myf2" begin="13000" end="18000" number="70" from="gneE52" to="gneE20" type="bus"/>
    <flow id="myf3" begin="13000" end="18000" number="70" from="gneE0" to="gneE51" type="bus"/>

    <flow id="myf4" begin="13000" end="18000" number="70" from="gneE81" to="gneE51" type="bus"/>
    <flow id="myf5" begin="13000" end="18000" number="70" from="gneE81" to="gneE20" type="bus"/>
    <flow id="myf6" begin="13000" end="18000" number="70" from="gneE64" to="gneE20" type="bus"/>
    <flow id="myf7" begin="13000" end="18000" number="70" from="gneE64" to="gneE51" type="bus"/>

    <flow id="myf8" begin="13000" end="18000" number="70" from="gneE0" to="gneE63" type="bus"/>
    <flow id="myf9" begin="13000" end="18000" number="70" from="gneE0" to="gneE80" type="bus"/>
    <flow id="myf10" begin="13000" end="18000" number="70" from="gneE52" to="gneE63" type="bus"/>
    <flow id="myf11" begin="13000" end="18000" number="70" from="gneE52" to="gneE80" type="bus"/>

    <flow id="myf12" begin="16000" end="19000" number="70" from="gneE81" to="gneE63" type="bus"/>
    <flow id="myf13" begin="16000" end="19000" number="70" from="gneE64" to="gneE80" type="bus"/>
    <flow id="myf14" begin="16000" end="19000" number="70" from="gneE81" to="gneE51" type="bus"/>
    <flow id="myf15" begin="16000" end="19000" number="70" from="gneE81" to="gneE20" type="bus"/>
    <flow id="myf16" begin="16000" end="19000" number="70" from="gneE64" to="gneE20" type="bus"/>
    <flow id="myf17" begin="16000" end="19000" number="70" from="gneE64" to="gneE51" type="bus"/>


    <!-- <vType id="bicycle" vClass="bicycle" minGap="0.5" latAlignment="arbitrary" lcPushy="1"/> -->
    <flow id="myf18" begin="13000" end="18000" number="15" from="gneE81" to="gneE63" type="bicycle"/>
    <flow id="myf19" begin="13000" end="18000" number="15" from="gneE64" to="gneE80" type="bicycle"/>
    <flow id="myf20" begin="13000" end="18000" number="15" from="gneE52" to="gneE20" type="bicycle"/>
    <flow id="myf21" begin="13000" end="18000" number="15" from="gneE0" to="gneE51" type="bicycle"/>

    <flow id="myf22" begin="13000" end="18000" number="15" from="gneE81" to="gneE51" type="bicycle"/>
    <flow id="myf23" begin="13000" end="18000" number="15" from="gneE81" to="gneE20" type="bicycle"/>
    <flow id="myf24" begin="13000" end="18000" number="15" from="gneE64" to="gneE20" type="bicycle"/>
    <flow id="myf25" begin="13000" end="18000" number="15" from="gneE64" to="gneE51" type="bicycle"/>

    <flow id="myf26" begin="13000" end="18000" number="15" from="gneE0" to="gneE63" type="bicycle"/>
    <flow id="myf27" begin="13000" end="18000" number="15" from="gneE0" to="gneE80" type="bicycle"/>
    <flow id="myf28" begin="13000" end="18000" number="15" from="gneE52" to="gneE63" type="bicycle"/>
    <flow id="myf29" begin="13000" end="18000" number="15" from="gneE52" to="gneE80" type="bicycle"/>

    <flow id="myf30" begin="16000" end="19000" number="15" from="gneE81" to="gneE63" type="bicycle"/>
    <flow id="myf31" begin="16000" end="19000" number="15" from="gneE64" to="gneE80" type="bicycle"/>
    <flow id="myf32" begin="16000" end="19000" number="15" from="gneE81" to="gneE51" type="bicycle"/>
    <flow id="myf33" begin="16000" end="19000" number="15" from="gneE81" to="gneE20" type="bicycle"/>
    <flow id="myf34" begin="16000" end="19000" number="15" from="gneE64" to="gneE20" type="bicycle"/>
    <flow id="myf35" begin="16000" end="19000" number="15" from="gneE64" to="gneE51" type="bicycle"/>

    <!-- <vType id="motorcycle" vClass="motorcycle" minGap="0.5" length="2.034" width="0.74" height="1.152" latAlignment="right" lcPushy="1"/> -->
    <flow id="myf36" begin="13000" end="18000" number="150" from="gneE81" to="gneE63" type="motorcycle"/>
    <flow id="myf37" begin="13000" end="18000" number="150" from="gneE64" to="gneE80" type="motorcycle"/>
    <flow id="myf38" begin="13000" end="18000" number="150" from="gneE52" to="gneE20" type="motorcycle"/>
    <flow id="myf39" begin="13000" end="18000" number="150" from="gneE0" to="gneE51" type="motorcycle"/>

    <flow id="myf40" begin="13000" end="18000" number="150" from="gneE81" to="gneE51" type="motorcycle"/>
    <flow id="myf41" begin="13000" end="18000" number="150" from="gneE81" to="gneE20" type="motorcycle"/>
    <flow id="myf42" begin="13000" end="18000" number="150" from="gneE64" to="gneE20" type="motorcycle"/>
    <flow id="myf43" begin="13000" end="18000" number="150" from="gneE64" to="gneE51" type="motorcycle"/>

    <flow id="myf44" begin="13000" end="18000" number="150" from="gneE0" to="gneE63" type="motorcycle"/>
    <flow id="myf45" begin="13000" end="18000" number="150" from="gneE0" to="gneE80" type="motorcycle"/>
    <flow id="myf46" begin="13000" end="18000" number="150" from="gneE52" to="gneE63" type="motorcycle"/>
    <flow id="myf47" begin="13000" end="18000" number="150" from="gneE52" to="gneE80" type="motorcycle"/>

    <flow id="myf48" begin="16000" end="19000" number="150" from="gneE81" to="gneE63" type="motorcycle"/>
    <flow id="myf49" begin="16000" end="19000" number="150" from="gneE64" to="gneE80" type="motorcycle"/>
    <flow id="myf50" begin="16000" end="19000" number="150" from="gneE81" to="gneE51" type="motorcycle"/>
    <flow id="myf51" begin="16000" end="19000" number="150" from="gneE81" to="gneE20" type="motorcycle"/>
    <flow id="myf52" begin="16000" end="19000" number="150" from="gneE64" to="gneE20" type="motorcycle"/>
    <flow id="myf53" begin="16000" end="19000" number="150" from="gneE64" to="gneE51" type="motorcycle"/>

    <!-- <vType id="truckv1" vClass="truck" guiShape="truck" minGap="2" length="4.3" width="1.8" height="2.0" latAlignment="left" lcPushy="1"/> -->
    <flow id="myf54" begin="13000" end="18000" number="30" from="gneE81" to="gneE63" type="truckv1"/>
    <flow id="myf55" begin="13000" end="18000" number="30" from="gneE64" to="gneE80" type="truckv1"/>
    <flow id="myf56" begin="13000" end="18000" number="30" from="gneE52" to="gneE20" type="truckv1"/>
    <flow id="myf57" begin="13000" end="18000" number="30" from="gneE0" to="gneE51" type="truckv1"/>

    <flow id="myf58" begin="13000" end="18000" number="30" from="gneE81" to="gneE51" type="truckv1"/>
    <flow id="myf59" begin="13000" end="18000" number="30" from="gneE81" to="gneE20" type="truckv1"/>
    <flow id="myf60" begin="13000" end="18000" number="30" from="gneE64" to="gneE20" type="truckv1"/>
    <flow id="myf61" begin="13000" end="18000" number="30" from="gneE64" to="gneE51" type="truckv1"/>

    <flow id="myf62" begin="13000" end="18000" number="30" from="gneE0" to="gneE63" type="truckv1"/>
    <flow id="myf63" begin="13000" end="18000" number="30" from="gneE0" to="gneE80" type="truckv1"/>
    <flow id="myf64" begin="13000" end="18000" number="30" from="gneE52" to="gneE63" type="truckv1"/>
    <flow id="myf65" begin="13000" end="18000" number="30" from="gneE52" to="gneE80" type="truckv1"/>

    <flow id="myf66" begin="16000" end="19000" number="30" from="gneE81" to="gneE63" type="truckv1"/>
    <flow id="myf67" begin="16000" end="19000" number="30" from="gneE64" to="gneE80" type="truckv1"/>
    <flow id="myf68" begin="16000" end="19000" number="30" from="gneE81" to="gneE51" type="truckv1"/>
    <flow id="myf69" begin="16000" end="19000" number="30" from="gneE81" to="gneE20" type="truckv1"/>
    <flow id="myf70" begin="16000" end="19000" number="30" from="gneE64" to="gneE20" type="truckv1"/>
    <flow id="myf71" begin="16000" end="19000" number="30" from="gneE64" to="gneE51" type="truckv1"/>

    <!-- <vType id="truckv2" vClass="truck" guiShape="truck" minGap="2" length="9.5" width="2.35" height="2.6" latAlignment="left" lcPushy="1"/> -->
    <flow id="myf72" begin="13000" end="18000" number="30" from="gneE81" to="gneE63" type="truckv2"/>
    <flow id="myf73" begin="13000" end="18000" number="30" from="gneE64" to="gneE80" type="truckv2"/>
    <flow id="myf74" begin="13000" end="18000" number="30" from="gneE52" to="gneE20" type="truckv2"/>
    <flow id="myf75" begin="13000" end="18000" number="30" from="gneE0" to="gneE51" type="truckv2"/>

    <flow id="myf76" begin="13000" end="18000" number="30" from="gneE81" to="gneE51" type="truckv2"/>
    <flow id="myf77" begin="13000" end="18000" number="30" from="gneE81" to="gneE20" type="truckv2"/>
    <flow id="myf78" begin="13000" end="18000" number="30" from="gneE64" to="gneE20" type="truckv2"/>
    <flow id="myf79" begin="13000" end="18000" number="30" from="gneE64" to="gneE51" type="truckv2"/>

    <flow id="myf80" begin="13000" end="18000" number="30" from="gneE0" to="gneE63" type="truckv2"/>
    <flow id="myf81" begin="13000" end="18000" number="30" from="gneE0" to="gneE80" type="truckv2"/>
    <flow id="myf82" begin="13000" end="18000" number="30" from="gneE52" to="gneE63" type="truckv2"/>
    <flow id="myf83" begin="13000" end="18000" number="30" from="gneE52" to="gneE80" type="truckv2"/>
