<?xml version="1.0" encoding="UTF-8"?>

<!-- generated on Fri Jan 11 22:21:21 2019 by SUMO duarouter Version 0.32.0
<?xml version="1.0" encoding="UTF-8"?>

<configuration xmlns:xsi="http://www.w3.org/2001/XMLSchema-instance" xsi:noNamespaceSchemaLocation="http://sumo.dlr.de/xsd/duarouterConfiguration.xsd">

    <input>
        <net-file value="net.net.xml"/>
        <route-files value="trips.trips.xml"/>
    </input>

    <output>
        <output-file value="result.rou.xml"/>
        <alternatives-output value="result.rou.alt.xml"/>
    </output>

</configuration>
-->

<routes xmlns:xsi="http://www.w3.org/2001/XMLSchema-instance" xsi:noNamespaceSchemaLocation="http://sumo.dlr.de/xsd/routes_file.xsd">
<vType id="bus" vClass="bus" guiShape="bus" minGap="2" length="9.44" width="2.45" height="3.1"
latAlignment="left" lcPushy="1"/>
<flow id="myflow" begin="0" end="1000" number="50" from="gneE0" to="gneE51" type="bus"/>
<flow id="myflow1" begin="0" end="1000" number="50" from="gneE52" to="gneE20" type="bus"/>
<flow id="myflow2" begin="500" end="2000" number="50" from="gneE64" to="gneE80" type="bus"/>
<flow id="myflow3" begin="500" end="2000" number="50" from="gneE81" to="gneE63" type="bus"/>

<flow id="myflow4" begin="2000" end="3000" number="50" from="gneE0" to="gneE51" type="bus"/>
<flow id="myflow5" begin="2000" end="3000" number="50" from="gneE52" to="gneE20" type="bus"/>
<flow id="myflow6" begin="2000" end="3000" number="50" from="gneE64" to="gneE80" type="bus"/>
<flow id="myflow7" begin="2000" end="3000" number="50" from="gneE81" to="gneE63" type="bus"/>

<flow id="myflow8" begin="0" end="3000" number="100" from="gneE0" to="gneE63" type="bus"/>
<flow id="myflow9" begin="0" end="3000" number="100" from="gneE0" to="gneE80" type="bus"/>
<flow id="myflow10" begin="0" end="3000" number="100" from="gneE52" to="gneE80" type="bus"/>
<flow id="myflow11" begin="0" end="3000" number="100" from="gneE52" to="gneE63" type="bus"/>

<vType id="bicycle" vClass="bicycle" minGap="0.5" latAlignment="arbitrary" lcPushy="1"/>
<flow id="myflow12" begin="0" end="1000" number="10" from="gneE0" to="gneE51" type="bicycle"/>
<flow id="myflow13" begin="0" end="1000" number="10" from="gneE52" to="gneE20" type="bicycle"/>
<flow id="myflow14" begin="500" end="2000" number="10" from="gneE64" to="gneE80" type="bicycle"/>
<flow id="myflow15" begin="500" end="2000" number="10" from="gneE81" to="gneE63" type="bicycle"/>

<flow id="myflow16" begin="2000" end="3000" number="10" from="gneE0" to="gneE51" type="bicycle"/>
<flow id="myflow17" begin="2000" end="3000" number="10" from="gneE52" to="gneE20" type="bicycle"/>
<flow id="myflow18" begin="2000" end="3000" number="10" from="gneE64" to="gneE80" type="bicycle"/>
<flow id="myflow19" begin="2000" end="3000" number="10" from="gneE81" to="gneE63" type="bicycle"/>

<flow id="myflow20" begin="0" end="3000" number="20" from="gneE0" to="gneE63" type="bicycle"/>
<flow id="myflow21" begin="0" end="3000" number="20" from="gneE0" to="gneE80" type="bicycle"/>
<flow id="myflow22" begin="0" end="3000" number="20" from="gneE52" to="gneE80" type="bicycle"/>
<flow id="myflow23" begin="0" end="3000" number="20" from="gneE52" to="gneE63" type="bicycle"/>

<vType id="motorcycle" vClass="motorcycle" minGap="0.5" length="2.034" width="0.74" height="1.152"
latAlignment="right" lcPushy="1"/>
<flow id="myflow24" begin="0" end="1000" number="100" from="gneE0" to="gneE51" type="motorcycle"/>
<flow id="myflow25" begin="0" end="1000" number="100" from="gneE52" to="gneE20" type="motorcycle"/>
<flow id="myflow26" begin="500" end="2000" number="100" from="gneE64" to="gneE80" type="motorcycle"/>
<flow id="myflow27" begin="500" end="2000" number="100" from="gneE81" to="gneE63" type="motorcycle"/>

<flow id="myflow28" begin="2000" end="3000" number="100" from="gneE0" to="gneE51" type="motorcycle"/>
<flow id="myflow29" begin="2000" end="3000" number="100" from="gneE52" to="gneE20" type="motorcycle"/>
<flow id="myflow30" begin="2000" end="3000" number="100" from="gneE64" to="gneE80" type="motorcycle"/>
<flow id="myflow31" begin="2000" end="3000" number="100" from="gneE81" to="gneE63" type="motorcycle"/>

<flow id="myflow32" begin="0" end="3000" number="200" from="gneE0" to="gneE63" type="motorcycle"/>
<flow id="myflow33" begin="0" end="3000" number="200" from="gneE0" to="gneE80" type="motorcycle"/>
<flow id="myflow34" begin="0" end="3000" number="200" from="gneE52" to="gneE80" type="motorcycle"/>
<flow id="myflow35" begin="0" end="3000" number="200" from="gneE52" to="gneE63" type="motorcycle"/>

<vType id="truckv1" vClass="truck" guiShape="truck" minGap="2" length="4.3" width="1.8" height="2.0"
latAlignment="left" lcPushy="1"/>
<flow id="myflow36" begin="0" end="1000" number="50" from="gneE0" to="gneE51" type="truckv1"/>
<flow id="myflow37" begin="0" end="1000" number="50" from="gneE52" to="gneE20" type="truckv1"/>
<flow id="myflow38" begin="500" end="2000" number="50" from="gneE64" to="gneE80" type="truckv1"/>
<flow id="myflow39" begin="500" end="2000" number="50" from="gneE81" to="gneE63" type="truckv1"/>

<flow id="myflow40" begin="2000" end="3000" number="50" from="gneE0" to="gneE51" type="truckv1"/>
<flow id="myflow41" begin="2000" end="3000" number="50" from="gneE52" to="gneE20" type="truckv1"/>
<flow id="myflow42" begin="2000" end="3000" number="50" from="gneE64" to="gneE80" type="truckv1"/>
<flow id="myflow43" begin="2000" end="3000" number="50" from="gneE81" to="gneE63" type="truckv1"/>

<flow id="myflow44" begin="0" end="3000" number="100" from="gneE0" to="gneE63" type="truckv1"/>
<flow id="myflow45" begin="0" end="3000" number="100" from="gneE0" to="gneE80" type="truckv1"/>
<flow id="myflow46" begin="0" end="3000" number="100" from="gneE52" to="gneE80" type="truckv1"/>
<flow id="myflow47" begin="0" end="3000" number="100" from="gneE52" to="gneE63" type="truckv1"/>

<vType id="truckv2" vClass="truck" guiShape="truck" minGap="2" length="9.5" width="2.35" height="2.6"
latAlignment="left" lcPushy="1"/>
<flow id="myflow48" begin="0" end="1000" number="50" from="gneE0" to="gneE51" type="truckv2"/>
<flow id="myflow49" begin="0" end="1000" number="50" from="gneE52" to="gneE20" type="truckv2"/>
<flow id="myflow50" begin="500" end="2000" number="50" from="gneE64" to="gneE80" type="truckv2"/>
<flow id="myflow51" begin="500" end="2000" number="50" from="gneE81" to="gneE63" type="truckv2"/>

<flow id="myflow52" begin="2000" end="3000" number="50" from="gneE0" to="gneE51" type="truckv2"/>
<flow id="myflow53" begin="2000" end="3000" number="50" from="gneE52" to="gneE20" type="truckv2"/>
<flow id="myflow54" begin="2000" end="3000" number="50" from="gneE64" to="gneE80" type="truckv2"/>
<flow id="myflow55" begin="2000" end="3000" number="50" from="gneE81" to="gneE63" type="truckv2"/>

<flow id="myflow56" begin="0" end="3000" number="100" from="gneE0" to="gneE63" type="truckv2"/>
<flow id="myflow57" begin="0" end="3000" number="100" from="gneE0" to="gneE80" type="truckv2"/>
<flow id="myflow58" begin="0" end="3000" number="100" from="gneE52" to="gneE80" type="truckv2"/>
<flow id="myflow59" begin="0" end="3000" number="100" from="gneE52" to="gneE63" type="truckv2"/>

<vType id="police" vClass="emergency" guiShape="police" minGap="2"
latAlignment="arbitrary" lcPushy="1"/>
<vType id="firebrigade" vClass="emergency" guiShape="firebrigade"
latAlignment="arbitrary" lcPushy="1"/>
<vType id="emergency" vClass="emergency" guiShape="emergency"
latAlignment="arbitrary" lcPushy="1"/>
<flow id="myflow60" begin="0" end="3000" number="5" from="gneE0" to="gneE51" type="police"/>
<flow id="myflow61" begin="0" end="3000" number="5" from="gneE0" to="gneE51" type="firebrigade"/>
<flow id="myflow62" begin="0" end="3000" number="5" from="gneE0" to="gneE51" type="emergency"/>
<flow id="myflow63" begin="0" end="3000" number="5" from="gneE52" to="gneE20" type="police"/>
<flow id="myflow64" begin="0" end="3000" number="5" from="gneE52" to="gneE20" type="firebrigade"/>
<flow id="myflow65" begin="0" end="3000" number="5" from="gneE52" to="gneE20" type="emergency"/>
<flow id="myflow66" begin="0" end="3000" number="5" from="gneE64" to="gneE80" type="police"/>
<flow id="myflow67" begin="0" end="3000" number="5" from="gneE64" to="gneE80" type="firebrigade"/>
<flow id="myflow68" begin="0" end="3000" number="5" from="gneE64" to="gneE80" type="emergency"/>
<flow id="myflow69" begin="0" end="3000" number="5" from="gneE81" to="gneE63" type="police"/>
<flow id="myflow70" begin="0" end="3000" number="5" from="gneE81" to="gneE63" type="firebrigade"/>
<flow id="myflow71" begin="0" end="3000" number="5" from="gneE81" to="gneE63" type="emergency"/>
<flow id="myflow72" begin="0" end="3000" number="5" from="T1" to="gneE63" type="police"/>
<flow id="myflow73" begin="0" end="3000" number="5" from="T1" to="gneE63" type="firebrigade"/>
<flow id="myflow74" begin="0" end="3000" number="5" from="T1" to="gneE63" type="emergency"/>
<flow id="myflow75" begin="0" end="3000" number="5" from="T2" to="gneE63" type="police"/>
<flow id="myflow76" begin="0" end="3000" number="5" from="T2" to="gneE63" type="firebrigade"/>
<flow id="myflow77" begin="0" end="3000" number="5" from="T2" to="gneE63" type="emergency"/>
<flow id="myflow78" begin="0" end="3000" number="5" from="T8" to="gneE63" type="police"/>
<flow id="myflow79" begin="0" end="3000" number="5" from="T8" to="gneE63" type="firebrigade"/>
<flow id="myflow80" begin="0" end="3000" number="5" from="T8" to="gneE63" type="emergency"/>

<vType id="taxi" vClass="taxi" guiShape="passenger/van" minGap="2"
latAlignment="left" lcPushy="1"/>
<flow id="myflow81" begin="0" end="1000" number="50" from="gneE0" to="gneE51" type="taxi"/>
<flow id="myflow82" begin="0" end="1000" number="50" from="gneE52" to="gneE20" type="taxi"/>
<flow id="myflow83" begin="500" end="2000" number="50" from="gneE64" to="gneE80" type="taxi"/>
<flow id="myflow84" begin="500" end="2000" number="50" from="gneE81" to="gneE63" type="taxi"/>

<flow id="myflow85" begin="2000" end="3000" number="50" from="gneE0" to="gneE51" type="taxi"/>
<flow id="myflow86" begin="2000" end="3000" number="50" from="gneE52" to="gneE20" type="taxi"/>
<flow id="myflow87" begin="2000" end="3000" number="50" from="gneE64" to="gneE80" type="taxi"/>
<flow id="myflow88" begin="2000" end="3000" number="50" from="gneE81" to="gneE63" type="taxi"/>

<flow id="myflow89" begin="0" end="3000" number="100" from="gneE0" to="gneE63" type="taxi"/>
<flow id="myflow90" begin="0" end="3000" number="100" from="gneE0" to="gneE80" type="taxi"/>
<flow id="myflow91" begin="0" end="3000" number="100" from="gneE52" to="gneE80" type="taxi"/>
<flow id="myflow92" begin="0" end="3000" number="100" from="gneE52" to="gneE63" type="taxi"/>
</routes>
