<?xml version="1.0" encoding="UTF-8"?>

<!-- generated on Fri Jan 25 16:41:24 2019 by Netedit Version 0.32.0
<?xml version="1.0" encoding="UTF-8"?>

<configuration xmlns:xsi="http://www.w3.org/2001/XMLSchema-instance" xsi:noNamespaceSchemaLocation="http://sumo.dlr.de/xsd/netconvertConfiguration.xsd">

    <input>
        <sumo-net-file value="net.net.xml"/>
    </input>

    <output>
        <output-file value="net.net.xml"/>
    </output>

    <processing>
        <no-internal-links value="false"/>
        <no-turnarounds value="true"/>
        <offset.disable-normalization value="true"/>
        <lefthand value="false"/>
        <junctions.corner-detail value="0"/>
        <rectangular-lane-cut value="false"/>
        <walkingareas value="false"/>
    </processing>

</configuration>
-->

<net version="0.27" xmlns:xsi="http://www.w3.org/2001/XMLSchema-instance" xsi:noNamespaceSchemaLocation="http://sumo.dlr.de/xsd/net_file.xsd">

    <location netOffset="-680865.62,-1189444.46" convBoundary="0.00,1.95,1490.18,2443.85" origBoundary="106.654124,10.755565,106.667725,10.777712" projParameter="+proj=utm +zone=48 +ellps=WGS84 +datum=WGS84 +units=m +no_defs"/>

    <type id="highway.bridleway" priority="1" numLanes="1" speed="2.78" allow="pedestrian" oneway="1" width="2.00"/>
    <type id="highway.bus_guideway" priority="1" numLanes="1" speed="8.33" allow="bus" oneway="1"/>
    <type id="highway.cycleway" priority="1" numLanes="1" speed="5.56" allow="bicycle" oneway="0" width="1.00"/>
    <type id="highway.footway" priority="1" numLanes="1" speed="2.78" allow="pedestrian" oneway="1" width="2.00"/>
    <type id="highway.ford" priority="1" numLanes="1" speed="2.78" allow="army" oneway="0"/>
    <type id="highway.living_street" priority="3" numLanes="1" speed="2.78" disallow="tram rail_urban rail rail_electric ship" oneway="0"/>
    <type id="highway.motorway" priority="13" numLanes="2" speed="44.44" allow="private emergency authority army vip passenger hov taxi bus coach delivery truck trailer motorcycle evehicle custom1 custom2" oneway="1"/>
    <type id="highway.motorway_link" priority="12" numLanes="1" speed="22.22" allow="private emergency authority army vip passenger hov taxi bus coach delivery truck trailer motorcycle evehicle custom1 custom2" oneway="1"/>
    <type id="highway.path" priority="1" numLanes="1" speed="2.78" allow="bicycle pedestrian" oneway="1" width="2.00"/>
    <type id="highway.pedestrian" priority="1" numLanes="1" speed="2.78" allow="pedestrian" oneway="1" width="2.00"/>
    <type id="highway.primary" priority="9" numLanes="2" speed="27.78" disallow="tram rail_urban rail rail_electric ship" oneway="0"/>
    <type id="highway.primary_link" priority="8" numLanes="1" speed="22.22" disallow="tram rail_urban rail rail_electric ship" oneway="0"/>
    <type id="highway.raceway" priority="14" numLanes="2" speed="83.33" allow="vip" oneway="0"/>
    <type id="highway.residential" priority="4" numLanes="1" speed="13.89" disallow="tram rail_urban rail rail_electric ship" oneway="0"/>
    <type id="highway.secondary" priority="7" numLanes="2" speed="27.78" disallow="tram rail_urban rail rail_electric ship" oneway="0"/>
    <type id="highway.secondary_link" priority="6" numLanes="1" speed="22.22" disallow="tram rail_urban rail rail_electric ship" oneway="0"/>
    <type id="highway.service" priority="2" numLanes="1" speed="5.56" allow="delivery bicycle pedestrian" oneway="0"/>
    <type id="highway.services" priority="1" numLanes="1" speed="8.33" disallow="tram rail_urban rail rail_electric ship" oneway="0"/>
    <type id="highway.stairs" priority="1" numLanes="1" speed="1.39" allow="pedestrian" oneway="1" width="2.00"/>
    <type id="highway.step" priority="1" numLanes="1" speed="1.39" allow="pedestrian" oneway="1" width="2.00"/>
    <type id="highway.steps" priority="1" numLanes="1" speed="1.39" allow="pedestrian" oneway="1" width="2.00"/>
    <type id="highway.tertiary" priority="6" numLanes="1" speed="22.22" disallow="tram rail_urban rail rail_electric ship" oneway="0"/>
    <type id="highway.tertiary_link" priority="5" numLanes="1" speed="22.22" disallow="tram rail_urban rail rail_electric ship" oneway="0"/>
    <type id="highway.track" priority="1" numLanes="1" speed="5.56" disallow="tram rail_urban rail rail_electric ship" oneway="0"/>
    <type id="highway.trunk" priority="11" numLanes="2" speed="27.78" disallow="tram rail_urban rail rail_electric bicycle pedestrian ship" oneway="0"/>
    <type id="highway.trunk_link" priority="10" numLanes="1" speed="22.22" disallow="tram rail_urban rail rail_electric bicycle pedestrian ship" oneway="0"/>
    <type id="highway.unclassified" priority="5" numLanes="1" speed="13.89" disallow="tram rail_urban rail rail_electric ship" oneway="0"/>
    <type id="highway.unsurfaced" priority="1" numLanes="1" speed="8.33" disallow="tram rail_urban rail rail_electric ship" oneway="0"/>
    <type id="railway.light_rail" priority="15" numLanes="1" speed="27.78" allow="rail_urban" oneway="1"/>
    <type id="railway.preserved" priority="15" numLanes="1" speed="27.78" allow="rail" oneway="1"/>
    <type id="railway.rail" priority="15" numLanes="1" speed="83.33" allow="rail rail_electric" oneway="1"/>
    <type id="railway.subway" priority="15" numLanes="1" speed="27.78" allow="rail_urban" oneway="1"/>
    <type id="railway.tram" priority="15" numLanes="1" speed="13.89" allow="tram" oneway="1"/>

    <edge id=":1997154185_0" function="internal">
        <lane id=":1997154185_0_0" index="0" allow="delivery bicycle pedestrian" speed="5.56" length="4.82" shape="950.98,666.40 952.06,665.38 952.96,665.16 953.67,665.75 954.20,667.14"/>
    </edge>
    <edge id=":1997154204_0" function="internal">
        <lane id=":1997154204_0_0" index="0" disallow="tram rail_urban rail rail_electric ship" speed="13.89" length="4.65" shape="1000.55,957.30 1000.51,958.28 1000.85,959.26 1001.54,960.23 1002.61,961.20"/>
    </edge>
    <edge id=":1997154204_1" function="internal">
        <lane id=":1997154204_1_0" index="0" disallow="tram rail_urban rail rail_electric ship" speed="13.89" length="2.72" shape="1000.55,957.30 999.47,958.33 998.58,958.56 998.33,958.36"/>
    </edge>
    <edge id=":1997154204_4" function="internal">
        <lane id=":1997154204_4_0" index="0" speed="13.89" length="2.10" shape="998.33,958.36 997.86,957.97 997.33,956.59"/>
    </edge>
    <edge id=":1997154204_2" function="internal">
        <lane id=":1997154204_2_0" index="0" disallow="tram rail_urban rail rail_electric ship" speed="13.89" length="4.76" shape="993.85,959.51 995.20,959.01 996.23,958.36 996.94,957.55 997.33,956.59"/>
    </edge>
    <edge id=":1997154204_3" function="internal">
        <lane id=":1997154204_3_0" index="0" disallow="tram rail_urban rail rail_electric ship" speed="13.89" length="9.26" shape="993.85,959.51 996.22,959.11 998.46,959.25 1000.59,959.95 1002.61,961.20"/>
    </edge>
    <edge id=":1997154204_w0" function="walkingarea">
        <lane id=":1997154204_w0_0" index="0" allow="pedestrian" speed="1.00" length="5.87" width="3.20" shape="1001.63,962.47 1003.59,959.94 1002.11,957.65 998.99,956.96 998.89,956.93 995.76,956.24 993.42,957.97 994.29,961.05"/>
    </edge>
    <edge id=":1997154260_0" function="internal">
        <lane id=":1997154260_0_0" index="0" disallow="tram rail_urban rail rail_electric ship" speed="13.89" length="4.82" shape="1009.80,681.38 1010.86,680.33 1011.75,680.09 1012.48,680.66 1013.04,682.04"/>
    </edge>
    <edge id=":1997154268_0" function="internal">
        <lane id=":1997154268_0_0" index="0" disallow="tram rail_urban rail rail_electric ship" speed="13.89" length="5.01" shape="1018.21,892.43 1016.84,892.33 1015.76,892.68 1014.98,893.50 1014.50,894.79"/>
    </edge>
    <edge id=":1997154268_1" function="internal">
        <lane id=":1997154268_1_0" index="0" disallow="tram rail_urban rail rail_electric ship" speed="13.89" length="9.51" shape="1018.21,892.43 1008.92,890.37"/>
    </edge>
    <edge id=":1997154268_2" function="internal">
        <lane id=":1997154268_2_0" index="0" disallow="tram rail_urban rail rail_electric ship" speed="13.89" length="5.34" shape="1018.21,892.43 1015.55,891.45 1013.85,889.90 1013.78,889.71"/>
    </edge>
    <edge id=":1997154268_3" function="internal">
        <lane id=":1997154268_3_0" index="0" disallow="tram rail_urban rail rail_electric ship" speed="13.89" length="2.41" shape="1018.21,892.43 1017.18,891.36 1016.96,890.46"/>
    </edge>
    <edge id=":1997154268_16" function="internal">
        <lane id=":1997154268_16_0" index="0" speed="13.89" length="4.74" shape="1013.78,889.71 1013.09,887.78 1013.29,885.09"/>
    </edge>
    <edge id=":1997154268_17" function="internal">
        <lane id=":1997154268_17_0" index="0" speed="13.89" length="2.41" shape="1016.96,890.46 1017.54,889.75 1018.93,889.21"/>
    </edge>
    <edge id=":1997154268_4" function="internal">
        <lane id=":1997154268_4_0" index="0" disallow="tram rail_urban rail rail_electric ship" speed="13.89" length="4.75" shape="1016.51,885.81 1016.43,887.05 1016.80,888.03 1017.64,888.75 1018.93,889.21"/>
    </edge>
    <edge id=":1997154268_5" function="internal">
        <lane id=":1997154268_5_0" index="0" disallow="tram rail_urban rail rail_electric ship" speed="13.89" length="9.20" shape="1016.51,885.81 1014.50,894.79"/>
    </edge>
    <edge id=":1997154268_6" function="internal">
        <lane id=":1997154268_6_0" index="0" disallow="tram rail_urban rail rail_electric ship" speed="13.89" length="10.08" shape="1016.51,885.81 1015.53,888.33 1013.94,889.92 1011.74,890.61 1008.92,890.37"/>
    </edge>
    <edge id=":1997154268_7" function="internal">
        <lane id=":1997154268_7_0" index="0" disallow="tram rail_urban rail rail_electric ship" speed="13.89" length="4.82" shape="1016.51,885.81 1015.43,886.84 1014.54,887.06 1013.82,886.48 1013.29,885.09"/>
    </edge>
    <edge id=":1997154268_8" function="internal">
        <lane id=":1997154268_8_0" index="0" disallow="tram rail_urban rail rail_electric ship" speed="13.89" length="4.77" shape="1009.64,887.15 1011.00,887.27 1012.07,886.97 1012.83,886.24 1013.29,885.09"/>
    </edge>
    <edge id=":1997154268_9" function="internal">
        <lane id=":1997154268_9_0" index="0" disallow="tram rail_urban rail rail_electric ship" speed="13.89" length="9.51" shape="1009.64,887.15 1018.93,889.21"/>
    </edge>
    <edge id=":1997154268_10" function="internal">
        <lane id=":1997154268_10_0" index="0" disallow="tram rail_urban rail rail_electric ship" speed="13.89" length="5.28" shape="1009.64,887.15 1012.29,888.15 1013.98,889.75 1014.01,889.86"/>
    </edge>
    <edge id=":1997154268_11" function="internal">
        <lane id=":1997154268_11_0" index="0" disallow="tram rail_urban rail rail_electric ship" speed="13.89" length="2.41" shape="1009.64,887.15 1010.67,888.22 1010.89,889.12"/>
    </edge>
    <edge id=":1997154268_18" function="internal">
        <lane id=":1997154268_18_0" index="0" speed="13.89" length="5.05" shape="1014.01,889.86 1014.72,891.97 1014.50,894.79"/>
    </edge>
    <edge id=":1997154268_19" function="internal">
        <lane id=":1997154268_19_0" index="0" speed="13.89" length="2.41" shape="1010.89,889.12 1010.31,889.83 1008.92,890.37"/>
    </edge>
    <edge id=":1997154268_12" function="internal">
        <lane id=":1997154268_12_0" index="0" disallow="tram rail_urban rail rail_electric ship" speed="13.89" length="5.00" shape="1011.28,894.07 1011.38,892.70 1011.02,891.63 1010.21,890.85 1008.92,890.37"/>
    </edge>
    <edge id=":1997154268_13" function="internal">
        <lane id=":1997154268_13_0" index="0" disallow="tram rail_urban rail rail_electric ship" speed="13.89" length="9.20" shape="1011.28,894.07 1013.29,885.09"/>
    </edge>
    <edge id=":1997154268_14" function="internal">
        <lane id=":1997154268_14_0" index="0" disallow="tram rail_urban rail rail_electric ship" speed="13.89" length="10.33" shape="1011.28,894.07 1012.28,891.42 1013.88,889.73 1016.10,888.99 1018.93,889.21"/>
    </edge>
    <edge id=":1997154268_15" function="internal">
        <lane id=":1997154268_15_0" index="0" disallow="tram rail_urban rail rail_electric ship" speed="13.89" length="4.82" shape="1011.28,894.07 1012.35,893.04 1013.24,892.82 1013.96,893.40 1014.50,894.79"/>
    </edge>
    <edge id=":1997154268_w0" function="walkingarea">
        <lane id=":1997154268_w0_0" index="0" allow="pedestrian" speed="1.00" length="7.12" width="3.20" shape="1017.86,893.99 1018.56,890.87 1018.58,890.77 1019.27,887.65 1018.07,886.17 1014.95,885.46 1014.85,885.44 1011.73,884.74 1009.99,885.59 1009.29,888.71 1009.27,888.81 1008.58,891.93 1009.71,893.72 1012.84,894.42 1012.93,894.44 1016.06,895.14"/>
    </edge>
    <edge id=":1997154438_0" function="internal">
        <lane id=":1997154438_0_0" index="0" allow="delivery bicycle pedestrian" speed="9.73" length="5.05" shape="933.73,770.93 932.34,770.80 931.26,771.16 930.50,771.99 930.04,773.31"/>
    </edge>
    <edge id=":1997154438_1" function="internal">
        <lane id=":1997154438_1_0" index="0" disallow="tram rail_urban rail rail_electric ship" speed="13.89" length="9.68" shape="933.73,770.93 924.31,768.67"/>
    </edge>
    <edge id=":1997154438_2" function="internal">
        <lane id=":1997154438_2_0" index="0" allow="delivery bicycle pedestrian" speed="9.73" length="5.38" shape="933.73,770.93 931.04,769.88 929.32,768.23 929.29,768.12"/>
    </edge>
    <edge id=":1997154438_3" function="internal">
        <lane id=":1997154438_3_0" index="0" disallow="tram rail_urban rail rail_electric ship" speed="13.89" length="2.41" shape="933.73,770.93 932.71,769.84 932.50,768.94"/>
    </edge>
    <edge id=":1997154438_16" function="internal">
        <lane id=":1997154438_16_0" index="0" speed="9.73" length="5.08" shape="929.29,768.12 928.58,765.99 928.81,763.16"/>
    </edge>
    <edge id=":1997154438_17" function="internal">
        <lane id=":1997154438_17_0" index="0" speed="13.89" length="2.41" shape="932.50,768.94 933.10,768.23 934.49,767.72"/>
    </edge>
    <edge id=":1997154438_4" function="internal">
        <lane id=":1997154438_4_0" index="0" disallow="tram rail_urban rail rail_electric ship" speed="9.73" length="5.18" shape="932.03,763.89 931.92,765.28 932.29,766.39 933.15,767.20 934.49,767.72"/>
    </edge>
    <edge id=":1997154438_5" function="internal">
        <lane id=":1997154438_5_0" index="0" allow="delivery bicycle pedestrian" speed="5.56" length="9.62" shape="932.03,763.89 930.04,773.31"/>
    </edge>
    <edge id=":1997154438_6" function="internal">
        <lane id=":1997154438_6_0" index="0" disallow="tram rail_urban rail rail_electric ship" speed="9.73" length="10.38" shape="932.03,763.89 931.00,766.55 929.38,768.23 927.15,768.94 924.31,768.67"/>
    </edge>
    <edge id=":1997154438_7" function="internal">
        <lane id=":1997154438_7_0" index="0" allow="delivery bicycle pedestrian" speed="5.56" length="4.82" shape="932.03,763.89 930.95,764.92 930.05,765.13 929.34,764.55 928.81,763.16"/>
    </edge>
    <edge id=":1997154438_8" function="internal">
        <lane id=":1997154438_8_0" index="0" allow="delivery bicycle pedestrian" speed="9.73" length="5.01" shape="925.08,765.47 926.45,765.59 927.53,765.25 928.32,764.44 928.81,763.16"/>
    </edge>
    <edge id=":1997154438_9" function="internal">
        <lane id=":1997154438_9_0" index="0" disallow="tram rail_urban rail rail_electric ship" speed="13.89" length="9.67" shape="925.08,765.47 934.49,767.72"/>
    </edge>
    <edge id=":1997154438_10" function="internal">
        <lane id=":1997154438_10_0" index="0" allow="delivery bicycle pedestrian" speed="9.73" length="5.21" shape="925.08,765.47 927.71,766.51 929.42,768.17"/>
    </edge>
    <edge id=":1997154438_11" function="internal">
        <lane id=":1997154438_11_0" index="0" disallow="tram rail_urban rail rail_electric ship" speed="13.89" length="2.41" shape="925.08,765.47 926.09,766.56 926.30,767.46"/>
    </edge>
    <edge id=":1997154438_18" function="internal">
        <lane id=":1997154438_18_0" index="0" speed="9.73" length="5.27" shape="929.42,768.17 930.19,770.43 930.04,773.31"/>
    </edge>
    <edge id=":1997154438_19" function="internal">
        <lane id=":1997154438_19_0" index="0" speed="13.89" length="2.41" shape="926.30,767.46 925.71,768.16 924.31,768.67"/>
    </edge>
    <edge id=":1997154438_12" function="internal">
        <lane id=":1997154438_12_0" index="0" disallow="tram rail_urban rail rail_electric ship" speed="9.73" length="5.32" shape="926.80,772.68 926.88,771.21 926.49,770.05 925.64,769.21 924.31,768.67"/>
    </edge>
    <edge id=":1997154438_13" function="internal">
        <lane id=":1997154438_13_0" index="0" allow="delivery bicycle pedestrian" speed="5.56" length="9.73" shape="926.80,772.68 928.81,763.16"/>
    </edge>
    <edge id=":1997154438_14" function="internal">
        <lane id=":1997154438_14_0" index="0" disallow="tram rail_urban rail rail_electric ship" speed="9.73" length="10.54" shape="926.80,772.68 927.75,769.93 929.35,768.19 931.60,767.45 934.49,767.72"/>
    </edge>
    <edge id=":1997154438_15" function="internal">
        <lane id=":1997154438_15_0" index="0" allow="delivery bicycle pedestrian" speed="5.56" length="4.82" shape="926.80,772.68 927.85,771.62 928.73,771.37 929.47,771.93 930.04,773.31"/>
    </edge>
    <edge id=":1997154438_w0" function="walkingarea">
        <lane id=":1997154438_w0_0" index="0" allow="pedestrian" speed="1.00" length="7.33" width="3.20" shape="933.36,772.48 934.10,769.37 934.12,769.27 934.86,766.16 933.59,764.25 930.47,763.54 930.37,763.51 927.25,762.80 925.46,763.91 924.71,767.02 924.69,767.12 923.94,770.23 925.23,772.37 928.37,772.98 928.47,773.00 931.61,773.61"/>
    </edge>
    <edge id=":1997154462_0" function="internal">
        <lane id=":1997154462_0_0" index="0" disallow="tram rail_urban rail rail_electric ship" speed="13.89" length="5.77" shape="949.66,776.44 948.91,775.51 947.85,774.72 946.49,774.07 944.82,773.57"/>
    </edge>
    <edge id=":1997154462_1" function="internal">
        <lane id=":1997154462_1_0" index="0" disallow="tram rail_urban rail rail_electric ship" speed="13.89" length="3.33" shape="949.66,776.44 948.91,774.70 948.70,773.28"/>
    </edge>
    <edge id=":1997154462_2" function="internal">
        <lane id=":1997154462_2_0" index="0" disallow="tram rail_urban rail rail_electric ship" speed="13.89" length="2.21" shape="949.66,776.44 949.73,774.95 950.12,774.34"/>
    </edge>
    <edge id=":1997154462_9" function="internal">
        <lane id=":1997154462_9_0" index="0" speed="13.89" length="5.11" shape="948.70,773.28 948.62,772.76 948.79,770.62 949.42,768.27"/>
    </edge>
    <edge id=":1997154462_10" function="internal">
        <lane id=":1997154462_10_0" index="0" speed="13.89" length="2.61" shape="950.12,774.34 950.22,774.17 951.14,774.10 952.49,774.73"/>
    </edge>
    <edge id=":1997154462_3" function="internal">
        <lane id=":1997154462_3_0" index="0" disallow="tram rail_urban rail rail_electric ship" speed="13.89" length="5.54" shape="952.53,769.36 952.08,770.99 951.92,772.42 952.05,773.67 952.49,774.73"/>
    </edge>
    <edge id=":1997154462_4" function="internal">
        <lane id=":1997154462_4_0" index="0" disallow="tram rail_urban rail rail_electric ship" speed="13.89" length="9.81" shape="952.53,769.36 951.32,771.71 949.63,773.20 947.46,773.82 944.82,773.57"/>
    </edge>
    <edge id=":1997154462_5" function="internal">
        <lane id=":1997154462_5_0" index="0" disallow="tram rail_urban rail rail_electric ship" speed="13.89" length="4.82" shape="952.53,769.36 951.35,770.25 950.43,770.37 949.79,769.71 949.42,768.27"/>
    </edge>
    <edge id=":1997154462_6" function="internal">
        <lane id=":1997154462_6_0" index="0" disallow="tram rail_urban rail rail_electric ship" speed="13.89" length="4.88" shape="945.58,770.36 946.90,770.48 947.97,770.18 948.82,769.44 949.42,768.27"/>
    </edge>
    <edge id=":1997154462_7" function="internal">
        <lane id=":1997154462_7_0" index="0" disallow="tram rail_urban rail rail_electric ship" speed="13.89" length="8.38" shape="945.58,770.36 947.88,771.08 949.80,772.05 951.34,773.26 952.49,774.73"/>
    </edge>
    <edge id=":1997154462_8" function="internal">
        <lane id=":1997154462_8_0" index="0" disallow="tram rail_urban rail rail_electric ship" speed="13.89" length="2.57" shape="945.58,770.36 946.60,771.45 946.81,772.35 946.71,772.47"/>
    </edge>
    <edge id=":1997154462_11" function="internal">
        <lane id=":1997154462_11_0" index="0" speed="13.89" length="2.25" shape="946.71,772.47 946.22,773.05 944.82,773.57"/>
    </edge>
    <edge id=":1997154462_w0" function="walkingarea">
        <lane id=":1997154462_w0_0" index="0" allow="pedestrian" speed="1.00" length="6.29" width="3.20" shape="948.29,777.26 951.03,775.61 951.12,775.56 953.86,773.91 954.04,769.89 951.02,768.83 950.93,768.80 947.91,767.73 945.96,768.80 945.21,771.92 945.19,772.01 944.45,775.13"/>
    </edge>
    <edge id=":1997154488_0" function="internal">
        <lane id=":1997154488_0_0" index="0" disallow="tram rail_urban rail rail_electric ship" speed="13.89" length="4.82" shape="1099.82,808.67 1100.83,809.76 1101.05,810.66 1100.45,811.37 1099.06,811.89"/>
    </edge>
    <edge id=":1997154576_0" function="internal">
        <lane id=":1997154576_0_0" index="0" disallow="tram rail_urban rail rail_electric ship" speed="13.89" length="5.29" shape="1020.32,881.98 1018.84,882.81 1017.73,883.67 1016.97,884.57 1016.58,885.51"/>
    </edge>
    <edge id=":1997154576_1" function="internal">
        <lane id=":1997154576_1_0" index="0" disallow="tram rail_urban rail rail_electric ship" speed="13.89" length="9.89" shape="1020.32,881.98 1017.77,882.81 1015.51,882.68 1013.53,881.57 1011.84,879.49"/>
    </edge>
    <edge id=":1997154576_2" function="internal">
        <lane id=":1997154576_2_0" index="0" disallow="tram rail_urban rail rail_electric ship" speed="13.89" length="4.82" shape="1020.32,881.98 1018.84,881.78 1018.11,881.23 1018.12,880.30 1018.86,879.02"/>
    </edge>
    <edge id=":1997154576_3" function="internal">
        <lane id=":1997154576_3_0" index="0" disallow="tram rail_urban rail rail_electric ship" speed="13.89" length="4.90" shape="1014.67,877.78 1015.51,878.81 1016.48,879.36 1017.60,879.43 1018.86,879.02"/>
    </edge>
    <edge id=":1997154576_4" function="internal">
        <lane id=":1997154576_4_0" index="0" disallow="tram rail_urban rail rail_electric ship" speed="13.89" length="8.30" shape="1014.67,877.78 1015.96,879.88 1016.72,881.47 1016.94,883.14 1016.58,885.51"/>
    </edge>
    <edge id=":1997154576_5" function="internal">
        <lane id=":1997154576_5_0" index="0" disallow="tram rail_urban rail rail_electric ship" speed="13.89" length="2.41" shape="1014.67,877.78 1014.60,879.27 1014.11,880.05"/>
    </edge>
    <edge id=":1997154576_9" function="internal">
        <lane id=":1997154576_9_0" index="0" speed="13.89" length="2.41" shape="1014.11,880.05 1013.19,880.12 1011.84,879.49"/>
    </edge>
    <edge id=":1997154576_6" function="internal">
        <lane id=":1997154576_6_0" index="0" disallow="tram rail_urban rail rail_electric ship" speed="13.89" length="5.75" shape="1013.36,884.78 1013.58,883.15 1013.36,882.01 1012.77,880.93 1011.84,879.49"/>
    </edge>
    <edge id=":1997154576_7" function="internal">
        <lane id=":1997154576_7_0" index="0" disallow="tram rail_urban rail rail_electric ship" speed="13.89" length="3.55" shape="1013.36,884.78 1013.99,883.13 1015.06,881.70"/>
    </edge>
    <edge id=":1997154576_8" function="internal">
        <lane id=":1997154576_8_0" index="0" disallow="tram rail_urban rail rail_electric ship" speed="13.89" length="2.41" shape="1013.36,884.78 1014.43,883.76 1015.33,883.54"/>
    </edge>
    <edge id=":1997154576_10" function="internal">
        <lane id=":1997154576_10_0" index="0" speed="13.89" length="4.68" shape="1015.06,881.70 1015.12,881.62 1016.75,880.25 1018.86,879.02"/>
    </edge>
    <edge id=":1997154576_11" function="internal">
        <lane id=":1997154576_11_0" index="0" speed="13.89" length="2.41" shape="1015.33,883.54 1016.04,884.12 1016.58,885.51"/>
    </edge>
    <edge id=":1997154576_w0" function="walkingarea">
        <lane id=":1997154576_w0_0" index="0" allow="pedestrian" speed="1.00" length="6.19" width="3.20" shape="1021.02,883.42 1019.61,880.54 1019.57,880.45 1018.16,877.58 1016.04,876.96 1013.30,878.61 1013.21,878.66 1010.47,880.32 1011.80,884.43 1014.92,885.13 1015.02,885.16 1018.14,885.86"/>
    </edge>
    <edge id=":1997154605_0" function="internal">
        <lane id=":1997154605_0_0" index="0" disallow="tram rail_urban rail rail_electric ship" speed="13.89" length="4.74" shape="997.31,986.31 995.95,986.78 994.91,987.41 994.18,988.19 993.77,989.11"/>
    </edge>
    <edge id=":1997154605_1" function="internal">
        <lane id=":1997154605_1_0" index="0" disallow="tram rail_urban rail rail_electric ship" speed="13.89" length="8.63" shape="997.31,986.31 994.87,986.71 993.16,986.45 991.47,985.71 989.12,984.66"/>
    </edge>
    <edge id=":1997154605_2" function="internal">
        <lane id=":1997154605_2_0" index="0" disallow="tram rail_urban rail rail_electric ship" speed="13.89" length="4.36" shape="990.57,988.32 990.74,987.03 990.56,985.99 990.01,985.20 989.12,984.66"/>
    </edge>
    <edge id=":1997154605_3" function="internal">
        <lane id=":1997154605_3_0" index="0" disallow="tram rail_urban rail rail_electric ship" speed="13.89" length="2.73" shape="990.57,988.32 991.67,987.32 992.57,987.12 992.81,987.32"/>
    </edge>
    <edge id=":1997154605_4" function="internal">
        <lane id=":1997154605_4_0" index="0" speed="13.89" length="2.09" shape="992.81,987.32 993.27,987.71 993.77,989.11"/>
    </edge>
    <edge id=":1997154605_w0" function="walkingarea">
        <lane id=":1997154605_w0_0" index="0" allow="pedestrian" speed="1.00" length="5.60" width="3.20" shape="997.72,987.86 996.91,984.76 989.70,983.17 988.54,986.15 989.02,987.94 992.12,988.71 992.22,988.73 995.33,989.50"/>
    </edge>
    <edge id=":2302073724_0" function="internal">
        <lane id=":2302073724_0_0" index="0" disallow="taxi bus truck" speed="13.89" length="5.95" shape="715.87,718.87 714.40,718.77 713.20,719.25 712.26,720.31 711.58,721.94"/>
    </edge>
    <edge id=":2302073724_1" function="internal">
        <lane id=":2302073724_1_0" index="0" speed="13.89" length="8.63" shape="715.87,718.87 713.00,718.43 710.80,718.64 709.27,719.51 708.41,721.04"/>
    </edge>
    <edge id=":2302073724_2" function="internal">
        <lane id=":2302073724_2_0" index="0" disallow="motorcycle bicycle" speed="13.89" length="11.54" shape="715.87,718.87 711.60,718.08 708.40,718.03 706.28,718.72 705.23,720.14"/>
    </edge>
    <edge id=":2302073724_3" function="internal">
        <lane id=":2302073724_3_0" index="0" disallow="tram rail_urban rail rail_electric ship" speed="13.89" length="23.01" shape="715.87,718.87 693.46,713.68"/>
    </edge>
    <edge id=":2302073724_4" function="internal">
        <lane id=":2302073724_4_0" index="0" disallow="taxi bus truck" speed="13.89" length="14.00" shape="715.87,718.87 707.57,716.42 702.76,714.09"/>
    </edge>
    <edge id=":2302073724_5" function="internal">
        <lane id=":2302073724_5_0" index="0" speed="13.89" length="11.89" shape="715.87,718.87 708.97,716.76 704.84,714.57"/>
    </edge>
    <edge id=":2302073724_6" function="internal">
        <lane id=":2302073724_6_0" index="0" disallow="motorcycle bicycle" speed="13.89" length="9.73" shape="715.87,718.87 710.37,717.11 706.99,715.07"/>
    </edge>
    <edge id=":2302073724_7" function="internal">
        <lane id=":2302073724_7_0" index="0" disallow="tram rail_urban rail rail_electric ship" speed="13.89" length="2.41" shape="715.87,718.87 714.86,717.78 714.65,716.88"/>
    </edge>
    <edge id=":2302073724_32" function="internal">
        <lane id=":2302073724_32_0" index="0" speed="13.89" length="8.50" shape="702.76,714.09 701.91,713.68 698.91,710.67 698.55,707.38"/>
    </edge>
    <edge id=":2302073724_33" function="internal">
        <lane id=":2302073724_33_0" index="0" speed="13.89" length="7.50" shape="704.84,714.57 704.31,714.29 701.90,711.47 701.73,708.28"/>
    </edge>
    <edge id=":2302073724_34" function="internal">
        <lane id=":2302073724_34_0" index="0" speed="13.89" length="6.61" shape="706.99,715.07 706.71,714.90 704.89,712.26 704.90,709.18"/>
    </edge>
    <edge id=":2302073724_35" function="internal">
        <lane id=":2302073724_35_0" index="0" speed="13.89" length="2.41" shape="714.65,716.88 715.25,716.17 716.64,715.66"/>
    </edge>
    <edge id=":2302073724_8" function="internal">
        <lane id=":2302073724_8_0" index="0" disallow="tram rail_urban rail rail_electric ship" speed="13.89" length="5.05" shape="714.43,711.88 714.24,713.25 714.55,714.35 715.35,715.15 716.64,715.66"/>
    </edge>
    <edge id=":2302073724_9" function="internal">
        <lane id=":2302073724_9_0" index="0" disallow="taxi bus truck" speed="13.89" length="10.46" shape="714.43,711.88 711.58,721.94"/>
    </edge>
    <edge id=":2302073724_10" function="internal">
        <lane id=":2302073724_10_0" index="0" disallow="taxi bus truck" speed="13.89" length="24.10" shape="714.43,711.88 708.78,716.71 704.24,717.57 700.84,714.46 698.55,707.38"/>
    </edge>
    <edge id=":2302073724_11" function="internal">
        <lane id=":2302073724_11_0" index="0" speed="13.89" length="10.46" shape="711.25,710.98 708.41,721.04"/>
    </edge>
    <edge id=":2302073724_12" function="internal">
        <lane id=":2302073724_12_0" index="0" speed="13.89" length="14.46" shape="711.25,710.98 707.86,713.88 705.14,714.39 703.10,712.53 701.73,708.28"/>
    </edge>
    <edge id=":2302073724_13" function="internal">