<?xml version="1.0" encoding="UTF-8"?>

<!-- generated on Sat Mar 30 14:39:02 2019 by Eclipse SUMO duarouter Version 1.1.0
<configuration xmlns:xsi="http://www.w3.org/2001/XMLSchema-instance" xsi:noNamespaceSchemaLocation="http://sumo.dlr.de/xsd/duarouterConfiguration.xsd">

    <input>
        <net-file value="net.net.xml"/>
        <route-files value="result.rou.xml"/>
    </input>

    <output>
        <output-file value="myroutes.rou.xml"/>
        <alternatives-output value="myroutes.rou.alt.xml"/>
    </output>

    <processing>
        <randomize-flows value="true"/>
    </processing>

</configuration>
-->

<routes xmlns:xsi="http://www.w3.org/2001/XMLSchema-instance" xsi:noNamespaceSchemaLocation="http://sumo.dlr.de/xsd/routes_file.xsd">
    <vType id="bus" length="9.44" minGap="2.00" vClass="bus" guiShape="bus" width="2.45" height="3.10" latAlignment="left" lcPushy="1"/>
    <vehicle id="myflow11.0" type="bus" depart="2.83">
        <route edges="gneE64 gneE62 gneE85 gneE88 gneE33 gneE35 gneE37 gneE39 gneE41 gneE43 gneE45 gneE47 gneE49 gneE51"/>
    </vehicle>
    <vehicle id="myflow10.0" type="bus" depart="11.12">
        <route edges="gneE64 gneE62 gneE85 gneE22 gneE19 gneE20"/>
    </vehicle>
    <vehicle id="myflow.0" type="bus" depart="18.13">
        <route edges="gneE81 gneE79 gneE77 gneE74 gneE72 gneE86 gneE84 gneE61 gneE63"/>
    </vehicle>
    <vehicle id="myflow2.0" type="bus" depart="47.01">
        <route edges="gneE52 gneE50 gneE48 gneE46 gneE44 gneE42 gneE40 gneE38 gneE36 gneE34 gneE89 gneE22 gneE19 gneE20"/>
    </vehicle>
    <vehicle id="myflow11.1" type="bus" depart="52.47">
        <route edges="gneE64 gneE62 gneE85 gneE88 gneE33 gneE35 gneE37 gneE39 gneE41 gneE43 gneE45 gneE47 gneE49 gneE51"/>
    </vehicle>
    <vehicle id="myflow.1" type="bus" depart="55.65">
        <route edges="gneE81 gneE79 gneE77 gneE74 gneE72 gneE86 gneE84 gneE61 gneE63"/>
    </vehicle>
    <vehicle id="myflow6.0" type="bus" depart="70.25">
        <route edges="gneE52 gneE50 gneE48 gneE46 gneE44 gneE42 gneE40 gneE38 gneE36 gneE34 gneE89 gneE84 gneE61 gneE63"/>
    </vehicle>
    <vehicle id="myflow8.0" type="bus" depart="88.60">
        <route edges="gneE81 gneE79 gneE77 gneE74 gneE72 gneE86 gneE88 gneE33 gneE35 gneE37 gneE39 gneE41 gneE43 gneE45 gneE47 gneE49 gneE51"/>
    </vehicle>
    <vehicle id="myflow2.1" type="bus" depart="89.59">
        <route edges="gneE52 gneE50 gneE48 gneE46 gneE44 gneE42 gneE40 gneE38 gneE36 gneE34 gneE89 gneE22 gneE19 gneE20"/>
    </vehicle>
    <vehicle id="myflow6.1" type="bus" depart="109.27">
        <route edges="gneE52 gneE50 gneE48 gneE46 gneE44 gneE42 gneE40 gneE38 gneE36 gneE34 gneE89 gneE84 gneE61 gneE63"/>
    </vehicle>
    <vehicle id="myflow6.2" type="bus" depart="111.65">
        <route edges="gneE52 gneE50 gneE48 gneE46 gneE44 gneE42 gneE40 gneE38 gneE36 gneE34 gneE89 gneE84 gneE61 gneE63"/>
    </vehicle>
    <vehicle id="myflow3.0" type="bus" depart="116.59">
        <route edges="gneE0 gneE16 gneE21 gneE88 gneE33 gneE35 gneE37 gneE39 gneE41 gneE43 gneE45 gneE47 gneE49 gneE51"/>
    </vehicle>
    <vehicle id="myflow1.0" type="bus" depart="121.78">
        <route edges="gneE64 gneE62 gneE85 gneE87 gneE71 gneE73 gneE76 gneE78 gneE80"/>
    </vehicle>
    <vehicle id="myflow7.0" type="bus" depart="128.34">
        <route edges="gneE52 gneE50 gneE48 gneE46 gneE44 gneE42 32579063#0 32579063#1 32579063#2 32579063#3 32579063#4 32579063#5 32579063#6 32579063#7 32579063#8 32579063#9 32579063#10 32579063#11 32579063#12 -32587322#6 -32587322#5 -32587322#4 -32587322#3 gneE76 gneE78 gneE80"/>
    </vehicle>
    <vehicle id="myflow5.0" type="bus" depart="130.11">
        <route edges="gneE0 gneE16 gneE21 gneE87 gneE71 gneE73 gneE76 gneE78 gneE80"/>
    </vehicle>
    <vehicle id="myflow4.0" type="bus" depart="149.63">
        <route edges="gneE0 gneE16 gneE21 gneE84 gneE61 gneE63"/>
    </vehicle>
    <vehicle id="myflow1.1" type="bus" depart="158.69">
        <route edges="gneE64 gneE62 gneE85 gneE87 gneE71 gneE73 gneE76 gneE78 gneE80"/>
    </vehicle>
    <vehicle id="myflow1.2" type="bus" depart="169.47">
        <route edges="gneE64 gneE62 gneE85 gneE87 gneE71 gneE73 gneE76 gneE78 gneE80"/>
    </vehicle>
    <vehicle id="myflow2.2" type="bus" depart="169.75">
        <route edges="gneE52 gneE50 gneE48 gneE46 gneE44 gneE42 gneE40 gneE38 gneE36 gneE34 gneE89 gneE22 gneE19 gneE20"/>
    </vehicle>
    <vehicle id="myflow3.1" type="bus" depart="179.52">
        <route edges="gneE0 gneE16 gneE21 gneE88 gneE33 gneE35 gneE37 gneE39 gneE41 gneE43 gneE45 gneE47 gneE49 gneE51"/>
    </vehicle>
    <vehicle id="myflow4.1" type="bus" depart="181.60">
        <route edges="gneE0 gneE16 gneE21 gneE84 gneE61 gneE63"/>
    </vehicle>
    <vehicle id="myflow11.2" type="bus" depart="188.21">
        <route edges="gneE64 gneE62 gneE85 gneE88 gneE33 gneE35 gneE37 gneE39 gneE41 gneE43 gneE45 gneE47 gneE49 gneE51"/>
    </vehicle>
    <vehicle id="myflow7.1" type="bus" depart="188.24">
        <route edges="gneE52 gneE50 gneE48 gneE46 gneE44 gneE42 32579063#0 32579063#1 32579063#2 32579063#3 32579063#4 32579063#5 32579063#6 32579063#7 32579063#8 32579063#9 32579063#10 32579063#11 32579063#12 -32587322#6 -32587322#5 -32587322#4 -32587322#3 gneE76 gneE78 gneE80"/>
    </vehicle>
    <vehicle id="myflow5.1" type="bus" depart="191.24">
        <route edges="gneE0 gneE16 gneE21 gneE87 gneE71 gneE73 gneE76 gneE78 gneE80"/>
    </vehicle>
    <vehicle id="myflow1.3" type="bus" depart="201.67">
        <route edges="gneE64 gneE62 gneE85 gneE87 gneE71 gneE73 gneE76 gneE78 gneE80"/>
    </vehicle>
    <vehicle id="myflow10.1" type="bus" depart="202.94">
        <route edges="gneE64 gneE62 gneE85 gneE22 gneE19 gneE20"/>
    </vehicle>
    <vehicle id="myflow1.4" type="bus" depart="207.72">
        <route edges="gneE64 gneE62 gneE85 gneE87 gneE71 gneE73 gneE76 gneE78 gneE80"/>
    </vehicle>
    <vehicle id="myflow4.2" type="bus" depart="208.04">
        <route edges="gneE0 gneE16 gneE21 gneE84 gneE61 gneE63"/>
    </vehicle>
    <vehicle id="myflow10.2" type="bus" depart="210.76">
        <route edges="gneE64 gneE62 gneE85 gneE22 gneE19 gneE20"/>
    </vehicle>
    <vehicle id="myflow9.0" type="bus" depart="215.86">
        <route edges="gneE81 gneE79 gneE77 -32587322#2 -32587322#1 -468249333#1 -468249333#0 gneE20"/>
    </vehicle>
    <vehicle id="myflow6.3" type="bus" depart="220.65">
        <route edges="gneE52 gneE50 gneE48 gneE46 gneE44 gneE42 gneE40 gneE38 gneE36 gneE34 gneE89 gneE84 gneE61 gneE63"/>
    </vehicle>
    <vehicle id="myflow11.3" type="bus" depart="229.60">
        <route edges="gneE64 gneE62 gneE85 gneE88 gneE33 gneE35 gneE37 gneE39 gneE41 gneE43 gneE45 gneE47 gneE49 gneE51"/>
    </vehicle>
    <vehicle id="myflow10.3" type="bus" depart="241.82">
        <route edges="gneE64 gneE62 gneE85 gneE22 gneE19 gneE20"/>
    </vehicle>
    <vehicle id="myflow11.4" type="bus" depart="244.16">
        <route edges="gneE64 gneE62 gneE85 gneE88 gneE33 gneE35 gneE37 gneE39 gneE41 gneE43 gneE45 gneE47 gneE49 gneE51"/>
    </vehicle>
    <vehicle id="myflow6.4" type="bus" depart="276.27">
        <route edges="gneE52 gneE50 gneE48 gneE46 gneE44 gneE42 gneE40 gneE38 gneE36 gneE34 gneE89 gneE84 gneE61 gneE63"/>
    </vehicle>
    <vehicle id="myflow5.2" type="bus" depart="280.53">
        <route edges="gneE0 gneE16 gneE21 gneE87 gneE71 gneE73 gneE76 gneE78 gneE80"/>
    </vehicle>
    <vehicle id="myflow9.1" type="bus" depart="292.21">
        <route edges="gneE81 gneE79 gneE77 -32587322#2 -32587322#1 -468249333#1 -468249333#0 gneE20"/>
    </vehicle>
    <vehicle id="myflow5.3" type="bus" depart="306.36">
        <route edges="gneE0 gneE16 gneE21 gneE87 gneE71 gneE73 gneE76 gneE78 gneE80"/>
    </vehicle>
    <vehicle id="myflow3.2" type="bus" depart="315.31">
        <route edges="gneE0 gneE16 gneE21 gneE88 gneE33 gneE35 gneE37 gneE39 gneE41 gneE43 gneE45 gneE47 gneE49 gneE51"/>
    </vehicle>
    <vehicle id="myflow2.3" type="bus" depart="319.61">
        <route edges="gneE52 gneE50 gneE48 gneE46 gneE44 gneE42 gneE40 gneE38 gneE36 gneE34 gneE89 gneE22 gneE19 gneE20"/>
    </vehicle>
    <vehicle id="myflow8.1" type="bus" depart="321.07">
        <route edges="gneE81 gneE79 gneE77 gneE74 gneE72 gneE86 gneE88 gneE33 gneE35 gneE37 gneE39 gneE41 gneE43 gneE45 gneE47 gneE49 gneE51"/>
    </vehicle>
    <vehicle id="myflow2.4" type="bus" depart="322.82">
        <route edges="gneE52 gneE50 gneE48 gneE46 gneE44 gneE42 gneE40 gneE38 gneE36 gneE34 gneE89 gneE22 gneE19 gneE20"/>
    </vehicle>
    <vehicle id="myflow8.2" type="bus" depart="326.27">
        <route edges="gneE81 gneE79 gneE77 gneE74 gneE72 gneE86 gneE88 gneE33 gneE35 gneE37 gneE39 gneE41 gneE43 gneE45 gneE47 gneE49 gneE51"/>
    </vehicle>
    <vehicle id="myflow5.4" type="bus" depart="327.86">
        <route edges="gneE0 gneE16 gneE21 gneE87 gneE71 gneE73 gneE76 gneE78 gneE80"/>
    </vehicle>
    <vehicle id="myflow9.2" type="bus" depart="337.63">
        <route edges="gneE81 gneE79 gneE77 -32587322#2 -32587322#1 -468249333#1 -468249333#0 gneE20"/>
    </vehicle>
    <vehicle id="myflow5.5" type="bus" depart="340.73">
        <route edges="gneE0 gneE16 gneE21 gneE87 gneE71 gneE73 gneE76 gneE78 gneE80"/>
    </vehicle>
    <vehicle id="myflow9.3" type="bus" depart="342.87">
        <route edges="gneE81 gneE79 gneE77 -32587322#2 -32587322#1 -468249333#1 -468249333#0 gneE20"/>
    </vehicle>
    <vehicle id="myflow5.6" type="bus" depart="343.35">
        <route edges="gneE0 gneE16 gneE21 gneE87 gneE71 gneE73 gneE76 gneE78 gneE80"/>
    </vehicle>
    <vehicle id="myflow.2" type="bus" depart="345.65">
        <route edges="gneE81 gneE79 gneE77 gneE74 gneE72 gneE86 gneE84 gneE61 gneE63"/>
    </vehicle>
    <vehicle id="myflow4.3" type="bus" depart="350.79">
        <route edges="gneE0 gneE16 gneE21 gneE84 gneE61 gneE63"/>
    </vehicle>
    <vehicle id="myflow.3" type="bus" depart="352.32">
        <route edges="gneE81 gneE79 gneE77 gneE74 gneE72 gneE86 gneE84 gneE61 gneE63"/>
    </vehicle>
    <vehicle id="myflow1.5" type="bus" depart="353.09">
        <route edges="gneE64 gneE62 gneE85 gneE87 gneE71 gneE73 gneE76 gneE78 gneE80"/>
    </vehicle>
    <vehicle id="myflow3.3" type="bus" depart="370.79">
        <route edges="gneE0 gneE16 gneE21 gneE88 gneE33 gneE35 gneE37 gneE39 gneE41 gneE43 gneE45 gneE47 gneE49 gneE51"/>
    </vehicle>
    <vehicle id="myflow.4" type="bus" depart="381.92">
        <route edges="gneE81 gneE79 gneE77 gneE74 gneE72 gneE86 gneE84 gneE61 gneE63"/>
    </vehicle>
    <vehicle id="myflow4.4" type="bus" depart="382.67">
        <route edges="gneE0 gneE16 gneE21 gneE84 gneE61 gneE63"/>
    </vehicle>
    <vehicle id="myflow1.6" type="bus" depart="386.17">
        <route edges="gneE64 gneE62 gneE85 gneE87 gneE71 gneE73 gneE76 gneE78 gneE80"/>
    </vehicle>
    <vehicle id="myflow6.5" type="bus" depart="393.73">
        <route edges="gneE52 gneE50 gneE48 gneE46 gneE44 gneE42 gneE40 gneE38 gneE36 gneE34 gneE89 gneE84 gneE61 gneE63"/>
    </vehicle>
    <vehicle id="myflow2.5" type="bus" depart="397.95">
        <route edges="gneE52 gneE50 gneE48 gneE46 gneE44 gneE42 gneE40 gneE38 gneE36 gneE34 gneE89 gneE22 gneE19 gneE20"/>
    </vehicle>
    <vehicle id="myflow.5" type="bus" depart="401.49">
        <route edges="gneE81 gneE79 gneE77 gneE74 gneE72 gneE86 gneE84 gneE61 gneE63"/>
    </vehicle>
    <vehicle id="myflow7.2" type="bus" depart="411.73">
        <route edges="gneE52 gneE50 gneE48 gneE46 gneE44 gneE42 32579063#0 32579063#1 32579063#2 32579063#3 32579063#4 32579063#5 32579063#6 32579063#7 32579063#8 32579063#9 32579063#10 32579063#11 32579063#12 -32587322#6 -32587322#5 -32587322#4 -32587322#3 gneE76 gneE78 gneE80"/>
    </vehicle>
    <vehicle id="myflow2.6" type="bus" depart="417.29">
        <route edges="gneE52 gneE50 gneE48 gneE46 gneE44 gneE42 gneE40 gneE38 gneE36 gneE34 gneE89 gneE22 gneE19 gneE20"/>
    </vehicle>
    <vehicle id="myflow6.6" type="bus" depart="419.01">
        <route edges="gneE52 gneE50 gneE48 gneE46 gneE44 gneE42 gneE40 gneE38 gneE36 gneE34 gneE89 gneE84 gneE61 gneE63"/>
    </vehicle>
    <vehicle id="myflow4.5" type="bus" depart="420.68">
        <route edges="gneE0 gneE16 gneE21 gneE84 gneE61 gneE63"/>
    </vehicle>
    <vehicle id="myflow11.5" type="bus" depart="422.38">
        <route edges="gneE64 gneE62 gneE85 gneE88 gneE33 gneE35 gneE37 gneE39 gneE41 gneE43 gneE45 gneE47 gneE49 gneE51"/>
    </vehicle>
    <vehicle id="myflow3.4" type="bus" depart="424.84">
        <route edges="gneE0 gneE16 gneE21 gneE88 gneE33 gneE35 gneE37 gneE39 gneE41 gneE43 gneE45 gneE47 gneE49 gneE51"/>
    </vehicle>
    <vehicle id="myflow7.3" type="bus" depart="425.10">
        <route edges="gneE52 gneE50 gneE48 gneE46 gneE44 gneE42 32579063#0 32579063#1 32579063#2 32579063#3 32579063#4 32579063#5 32579063#6 32579063#7 32579063#8 32579063#9 32579063#10 32579063#11 32579063#12 -32587322#6 -32587322#5 -32587322#4 -32587322#3 gneE76 gneE78 gneE80"/>
    </vehicle>
    <vehicle id="myflow8.3" type="bus" depart="426.92">
        <route edges="gneE81 gneE79 gneE77 gneE74 gneE72 gneE86 gneE88 gneE33 gneE35 gneE37 gneE39 gneE41 gneE43 gneE45 gneE47 gneE49 gneE51"/>
    </vehicle>
    <vehicle id="myflow9.4" type="bus" depart="429.67">
        <route edges="gneE81 gneE79 gneE77 -32587322#2 -32587322#1 -468249333#1 -468249333#0 gneE20"/>
    </vehicle>
    <vehicle id="myflow6.7" type="bus" depart="435.18">
        <route edges="gneE52 gneE50 gneE48 gneE46 gneE44 gneE42 gneE40 gneE38 gneE36 gneE34 gneE89 gneE84 gneE61 gneE63"/>
    </vehicle>
    <vehicle id="myflow3.5" type="bus" depart="435.93">
        <route edges="gneE0 gneE16 gneE21 gneE88 gneE33 gneE35 gneE37 gneE39 gneE41 gneE43 gneE45 gneE47 gneE49 gneE51"/>
    </vehicle>
    <vehicle id="myflow10.4" type="bus" depart="446.89">
        <route edges="gneE64 gneE62 gneE85 gneE22 gneE19 gneE20"/>
    </vehicle>
    <vehicle id="myflow7.4" type="bus" depart="456.61">
        <route edges="gneE52 gneE50 gneE48 gneE46 gneE44 gneE42 32579063#0 32579063#1 32579063#2 32579063#3 32579063#4 32579063#5 32579063#6 32579063#7 32579063#8 32579063#9 32579063#10 32579063#11 32579063#12 -32587322#6 -32587322#5 -32587322#4 -32587322#3 gneE76 gneE78 gneE80"/>
    </vehicle>
    <vehicle id="myflow5.7" type="bus" depart="461.59">
        <route edges="gneE0 gneE16 gneE21 gneE87 gneE71 gneE73 gneE76 gneE78 gneE80"/>
    </vehicle>
    <vehicle id="myflow8.4" type="bus" depart="462.52">
        <route edges="gneE81 gneE79 gneE77 gneE74 gneE72 gneE86 gneE88 gneE33 gneE35 gneE37 gneE39 gneE41 gneE43 gneE45 gneE47 gneE49 gneE51"/>
    </vehicle>
    <vehicle id="myflow5.8" type="bus" depart="462.72">
        <route edges="gneE0 gneE16 gneE21 gneE87 gneE71 gneE73 gneE76 gneE78 gneE80"/>
    </vehicle>
    <vehicle id="myflow9.5" type="bus" depart="464.16">
        <route edges="gneE81 gneE79 gneE77 -32587322#2 -32587322#1 -468249333#1 -468249333#0 gneE20"/>
    </vehicle>
    <vehicle id="myflow.6" type="bus" depart="476.94">
        <route edges="gneE81 gneE79 gneE77 gneE74 gneE72 gneE86 gneE84 gneE61 gneE63"/>
    </vehicle>
    <vehicle id="myflow11.6" type="bus" depart="490.44">
        <route edges="gneE64 gneE62 gneE85 gneE88 gneE33 gneE35 gneE37 gneE39 gneE41 gneE43 gneE45 gneE47 gneE49 gneE51"/>
    </vehicle>
    <vehicle id="myflow2.7" type="bus" depart="491.59">
        <route edges="gneE52 gneE50 gneE48 gneE46 gneE44 gneE42 gneE40 gneE38 gneE36 gneE34 gneE89 gneE22 gneE19 gneE20"/>
    </vehicle>
    <vehicle id="myflow3.6" type="bus" depart="506.14">
        <route edges="gneE0 gneE16 gneE21 gneE88 gneE33 gneE35 gneE37 gneE39 gneE41 gneE43 gneE45 gneE47 gneE49 gneE51"/>
    </vehicle>
    <vehicle id="myflow7.5" type="bus" depart="506.44">
        <route edges="gneE52 gneE50 gneE48 gneE46 gneE44 gneE42 32579063#0 32579063#1 32579063#2 32579063#3 32579063#4 32579063#5 32579063#6 32579063#7 32579063#8 32579063#9 32579063#10 32579063#11 32579063#12 -32587322#6 -32587322#5 -32587322#4 -32587322#3 gneE76 gneE78 gneE80"/>
    </vehicle>
    <vehicle id="myflow6.8" type="bus" depart="509.53">
        <route edges="gneE52 gneE50 gneE48 gneE46 gneE44 gneE42 gneE40 gneE38 gneE36 gneE34 gneE89 gneE84 gneE61 gneE63"/>
    </vehicle>
    <vehicle id="myflow7.6" type="bus" depart="513.50">
        <route edges="gneE52 gneE50 gneE48 gneE46 gneE44 gneE42 32579063#0 32579063#1 32579063#2 32579063#3 32579063#4 32579063#5 32579063#6 32579063#7 32579063#8 32579063#9 32579063#10 32579063#11 32579063#12 -32587322#6 -32587322#5 -32587322#4 -32587322#3 gneE76 gneE78 gneE80"/>
    </vehicle>
    <vehicle id="myflow5.9" type="bus" depart="521.70">
        <route edges="gneE0 gneE16 gneE21 gneE87 gneE71 gneE73 gneE76 gneE78 gneE80"/>
    </vehicle>
    <vehicle id="myflow10.5" type="bus" depart="541.29">
        <route edges="gneE64 gneE62 gneE85 gneE22 gneE19 gneE20"/>
    </vehicle>
    <vehicle id="myflow5.10" type="bus" depart="548.04">
        <route edges="gneE0 gneE16 gneE21 gneE87 gneE71 gneE73 gneE76 gneE78 gneE80"/>
    </vehicle>
    <vehicle id="myflow1.7" type="bus" depart="555.59">
        <route edges="gneE64 gneE62 gneE85 gneE87 gneE71 gneE73 gneE76 gneE78 gneE80"/>
    </vehicle>
    <vehicle id="myflow9.6" type="bus" depart="555.69">
        <route edges="gneE81 gneE79 gneE77 -32587322#2 -32587322#1 -468249333#1 -468249333#0 gneE20"/>
    </vehicle>
    <vehicle id="myflow1.8" type="bus" depart="557.09">
        <route edges="gneE64 gneE62 gneE85 gneE87 gneE71 gneE73 gneE76 gneE78 gneE80"/>
    </vehicle>
    <vehicle id="myflow10.6" type="bus" depart="560.10">
        <route edges="gneE64 gneE62 gneE85 gneE22 gneE19 gneE20"/>
    </vehicle>
    <vehicle id="myflow10.7" type="bus" depart="561.95">
        <route edges="gneE64 gneE62 gneE85 gneE22 gneE19 gneE20"/>
    </vehicle>
    <vehicle id="myflow3.7" type="bus" depart="572.23">
        <route edges="gneE0 gneE16 gneE21 gneE88 gneE33 gneE35 gneE37 gneE39 gneE41 gneE43 gneE45 gneE47 gneE49 gneE51"/>
    </vehicle>
    <vehicle id="myflow4.6" type="bus" depart="573.43">
        <route edges="gneE0 gneE16 gneE21 gneE84 gneE61 gneE63"/>
    </vehicle>
    <vehicle id="myflow2.8" type="bus" depart="581.56">
        <route edges="gneE52 gneE50 gneE48 gneE46 gneE44 gneE42 gneE40 gneE38 gneE36 gneE34 gneE89 gneE22 gneE19 gneE20"/>
    </vehicle>
    <vehicle id="myflow7.7" type="bus" depart="584.90">
        <route edges="gneE52 gneE50 gneE48 gneE46 gneE44 gneE42 32579063#0 32579063#1 32579063#2 32579063#3 32579063#4 32579063#5 32579063#6 32579063#7 32579063#8 32579063#9 32579063#10 32579063#11 32579063#12 -32587322#6 -32587322#5 -32587322#4 -32587322#3 gneE76 gneE78 gneE80"/>
    </vehicle>
    <vehicle id="myflow1.9" type="bus" depart="587.90">
        <route edges="gneE64 gneE62 gneE85 gneE87 gneE71 gneE73 gneE76 gneE78 gneE80"/>
    </vehicle>
    <vehicle id="myflow3.8" type="bus" depart="592.10">
        <route edges="gneE0 gneE16 gneE21 gneE88 gneE33 gneE35 gneE37 gneE39 gneE41 gneE43 gneE45 gneE47 gneE49 gneE51"/>
    </vehicle>
    <vehicle id="myflow.7" type="bus" depart="596.97">
        <route edges="gneE81 gneE79 gneE77 gneE74 gneE72 gneE86 gneE84 gneE61 gneE63"/>
    </vehicle>
    <vehicle id="myflow8.5" type="bus" depart="604.53">
        <route edges="gneE81 gneE79 gneE77 gneE74 gneE72 gneE86 gneE88 gneE33 gneE35 gneE37 gneE39 gneE41 gneE43 gneE45 gneE47 gneE49 gneE51"/>
    </vehicle>
    <vehicle id="myflow11.7" type="bus" depart="609.78">
        <route edges="gneE64 gneE62 gneE85 gneE88 gneE33 gneE35 gneE37 gneE39 gneE41 gneE43 gneE45 gneE47 gneE49 gneE51"/>
    </vehicle>
    <vehicle id="myflow3.9" type="bus" depart="610.28">
        <route edges="gneE0 gneE16 gneE21 gneE88 gneE33 gneE35 gneE37 gneE39 gneE41 gneE43 gneE45 gneE47 gneE49 gneE51"/>
    </vehicle>
    <vehicle id="myflow2.9" type="bus" depart="617.57">
        <route edges="gneE52 gneE50 gneE48 gneE46 gneE44 gneE42 gneE40 gneE38 gneE36 gneE34 gneE89 gneE22 gneE19 gneE20"/>
    </vehicle>
    <vehicle id="myflow6.9" type="bus" depart="617.73">
        <route edges="gneE52 gneE50 gneE48 gneE46 gneE44 gneE42 gneE40 gneE38 gneE36 gneE34 gneE89 gneE84 gneE61 gneE63"/>
    </vehicle>
    <vehicle id="myflow2.10" type="bus" depart="627.48">
        <route edges="gneE52 gneE50 gneE48 gneE46 gneE44 gneE42 gneE40 gneE38 gneE36 gneE34 gneE89 gneE22 gneE19 gneE20"/>
    </vehicle>
    <vehicle id="myflow3.10" type="bus" depart="634.78">
        <route edges="gneE0 gneE16 gneE21 gneE88 gneE33 gneE35 gneE37 gneE39 gneE41 gneE43 gneE45 gneE47 gneE49 gneE51"/>
    </vehicle>
    <vehicle id="myflow6.10" type="bus" depart="635.17">
        <route edges="gneE52 gneE50 gneE48 gneE46 gneE44 gneE42 gneE40 gneE38 gneE36 gneE34 gneE89 gneE84 gneE61 gneE63"/>
    </vehicle>
    <vehicle id="myflow11.8" type="bus" depart="640.86">
        <route edges="gneE64 gneE62 gneE85 gneE88 gneE33 gneE35 gneE37 gneE39 gneE41 gneE43 gneE45 gneE47 gneE49 gneE51"/>
    </vehicle>
    <vehicle id="myflow3.11" type="bus" depart="656.16">
        <route edges="gneE0 gneE16 gneE21 gneE88 gneE33 gneE35 gneE37 gneE39 gneE41 gneE43 gneE45 gneE47 gneE49 gneE51"/>
    </vehicle>
    <vehicle id="myflow11.9" type="bus" depart="663.46">
        <route edges="gneE64 gneE62 gneE85 gneE88 gneE33 gneE35 gneE37 gneE39 gneE41 gneE43 gneE45 gneE47 gneE49 gneE51"/>
    </vehicle>
    <vehicle id="myflow11.10" type="bus" depart="665.77">
        <route edges="gneE64 gneE62 gneE85 gneE88 gneE33 gneE35 gneE37 gneE39 gneE41 gneE43 gneE45 gneE47 gneE49 gneE51"/>
    </vehicle>
    <vehicle id="myflow.8" type="bus" depart="674.42">
        <route edges="gneE81 gneE79 gneE77 gneE74 gneE72 gneE86 gneE84 gneE61 gneE63"/>
    </vehicle>
    <vehicle id="myflow4.7" type="bus" depart="675.61">
        <route edges="gneE0 gneE16 gneE21 gneE84 gneE61 gneE63"/>
    </vehicle>
    <vehicle id="myflow8.6" type="bus" depart="676.92">
        <route edges="gneE81 gneE79 gneE77 gneE74 gneE72 gneE86 gneE88 gneE33 gneE35 gneE37 gneE39 gneE41 gneE43 gneE45 gneE47 gneE49 gneE51"/>
    </vehicle>
    <vehicle id="myflow11.11" type="bus" depart="679.22">
        <route edges="gneE64 gneE62 gneE85 gneE88 gneE33 gneE35 gneE37 gneE39 gneE41 gneE43 gneE45 gneE47 gneE49 gneE51"/>
    </vehicle>
    <vehicle id="myflow2.11" type="bus" depart="688.48">
        <route edges="gneE52 gneE50 gneE48 gneE46 gneE44 gneE42 gneE40 gneE38 gneE36 gneE34 gneE89 gneE22 gneE19 gneE20"/>
    </vehicle>
    <vehicle id="myflow10.8" type="bus" depart="693.28">
        <route edges="gneE64 gneE62 gneE85 gneE22 gneE19 gneE20"/>
    </vehicle>
    <vehicle id="myflow3.12" type="bus" depart="697.79">
        <route edges="gneE0 gneE16 gneE21 gneE88 gneE33 gneE35 gneE37 gneE39 gneE41 gneE43 gneE45 gneE47 gneE49 gneE51"/>
    </vehicle>
    <vehicle id="myflow4.8" type="bus" depart="700.29">
        <route edges="gneE0 gneE16 gneE21 gneE84 gneE61 gneE63"/>
    </vehicle>
    <vehicle id="myflow9.7" type="bus" depart="709.44">
        <route edges="gneE81 gneE79 gneE77 -32587322#2 -32587322#1 -468249333#1 -468249333#0 gneE20"/>
    </vehicle>
    <vehicle id="myflow7.8" type="bus" depart="717.79">
        <route edges="gneE52 gneE50 gneE48 gneE46 gneE44 gneE42 32579063#0 32579063#1 32579063#2 32579063#3 32579063#4 32579063#5 32579063#6 32579063#7 32579063#8 32579063#9 32579063#10 32579063#11 32579063#12 -32587322#6 -32587322#5 -32587322#4 -32587322#3 gneE76 gneE78 gneE80"/>
    </vehicle>
    <vehicle id="myflow8.7" type="bus" depart="741.96">
        <route edges="gneE81 gneE79 gneE77 gneE74 gneE72 gneE86 gneE88 gneE33 gneE35 gneE37 gneE39 gneE41 gneE43 gneE45 gneE47 gneE49 gneE51"/>
    </vehicle>
    <vehicle id="myflow4.9" type="bus" depart="748.54">
        <route edges="gneE0 gneE16 gneE21 gneE84 gneE61 gneE63"/>
    </vehicle>
    <vehicle id="myflow.9" type="bus" depart="754.69">
        <route edges="gneE81 gneE79 gneE77 gneE74 gneE72 gneE86 gneE84 gneE61 gneE63"/>
    </vehicle>
    <vehicle id="myflow7.9" type="bus" depart="761.23">
        <route edges="gneE52 gneE50 gneE48 gneE46 gneE44 gneE42 32579063#0 32579063#1 32579063#2 32579063#3 32579063#4 32579063#5 32579063#6 32579063#7 32579063#8 32579063#9 32579063#10 32579063#11 32579063#12 -32587322#6 -32587322#5 -32587322#4 -32587322#3 gneE76 gneE78 gneE80"/>
    </vehicle>
    <vehicle id="myflow2.12" type="bus" depart="765.39">
        <route edges="gneE52 gneE50 gneE48 gneE46 gneE44 gneE42 gneE40 gneE38 gneE36 gneE34 gneE89 gneE22 gneE19 gneE20"/>
    </vehicle>
    <vehicle id="myflow11.12" type="bus" depart="777.22">
        <route edges="gneE64 gneE62 gneE85 gneE88 gneE33 gneE35 gneE37 gneE39 gneE41 gneE43 gneE45 gneE47 gneE49 gneE51"/>
    </vehicle>
    <vehicle id="myflow6.11" type="bus" depart="780.76">
        <route edges="gneE52 gneE50 gneE48 gneE46 gneE44 gneE42 gneE40 gneE38 gneE36 gneE34 gneE89 gneE84 gneE61 gneE63"/>
    </vehicle>
    <vehicle id="myflow4.10" type="bus" depart="783.83">
        <route edges="gneE0 gneE16 gneE21 gneE84 gneE61 gneE63"/>
    </vehicle>
    <vehicle id="myflow6.12" type="bus" depart="803.45">
        <route edges="gneE52 gneE50 gneE48 gneE46 gneE44 gneE42 gneE40 gneE38 gneE36 gneE34 gneE89 gneE84 gneE61 gneE63"/>
    </vehicle>
    <vehicle id="myflow11.13" type="bus" depart="821.93">
        <route edges="gneE64 gneE62 gneE85 gneE88 gneE33 gneE35 gneE37 gneE39 gneE41 gneE43 gneE45 gneE47 gneE49 gneE51"/>
    </vehicle>
    <vehicle id="myflow4.11" type="bus" depart="825.84">
        <route edges="gneE0 gneE16 gneE21 gneE84 gneE61 gneE63"/>
    </vehicle>
    <vehicle id="myflow9.8" type="bus" depart="826.70">
        <route edges="gneE81 gneE79 gneE77 -32587322#2 -32587322#1 -468249333#1 -468249333#0 gneE20"/>
    </vehicle>
    <vehicle id="myflow4.12" type="bus" depart="837.30">
        <route edges="gneE0 gneE16 gneE21 gneE84 gneE61 gneE63"/>
    </vehicle>
    <vehicle id="myflow8.8" type="bus" depart="845.77">
        <route edges="gneE81 gneE79 gneE77 gneE74 gneE72 gneE86 gneE88 gneE33 gneE35 gneE37 gneE39 gneE41 gneE43 gneE45 gneE47 gneE49 gneE51"/>
    </vehicle>
    <vehicle id="myflow2.13" type="bus" depart="859.60">
        <route edges="gneE52 gneE50 gneE48 gneE46 gneE44 gneE42 gneE40 gneE38 gneE36 gneE34 gneE89 gneE22 gneE19 gneE20"/>
    </vehicle>
    <vehicle id="myflow5.11" type="bus" depart="859.97">
        <route edges="gneE0 gneE16 gneE21 gneE87 gneE71 gneE73 gneE76 gneE78 gneE80"/>
    </vehicle>
    <vehicle id="myflow4.13" type="bus" depart="861.23">
        <route edges="gneE0 gneE16 gneE21 gneE84 gneE61 gneE63"/>
    </vehicle>
    <vehicle id="myflow8.9" type="bus" depart="864.66">
        <route edges="gneE81 gneE79 gneE77 gneE74 gneE72 gneE86 gneE88 gneE33 gneE35 gneE37 gneE39 gneE41 gneE43 gneE45 gneE47 gneE49 gneE51"/>
    </vehicle>
    <vehicle id="myflow.10" type="bus" depart="869.60">
        <route edges="gneE81 gneE79 gneE77 gneE74 gneE72 gneE86 gneE84 gneE61 gneE63"/>
    </vehicle>
    <vehicle id="myflow10.9" type="bus" depart="870.35">
        <route edges="gneE64 gneE62 gneE85 gneE22 gneE19 gneE20"/>
    </vehicle>
    <vehicle id="myflow6.13" type="bus" depart="870.97">
        <route edges="gneE52 gneE50 gneE48 gneE46 gneE44 gneE42 gneE40 gneE38 gneE36 gneE34 gneE89 gneE84 gneE61 gneE63"/>
    </vehicle>
    <vehicle id="myflow11.14" type="bus" depart="873.85">
        <route edges="gneE64 gneE62 gneE85 gneE88 gneE33 gneE35 gneE37 gneE39 gneE41 gneE43 gneE45 gneE47 gneE49 gneE51"/>
    </vehicle>
    <vehicle id="myflow8.10" type="bus" depart="873.90">
        <route edges="gneE81 gneE79 gneE77 gneE74 gneE72 gneE86 gneE88 gneE33 gneE35 gneE37 gneE39 gneE41 gneE43 gneE45 gneE47 gneE49 gneE51"/>
    </vehicle>
    <vehicle id="myflow8.11" type="bus" depart="876.21">
        <route edges="gneE81 gneE79 gneE77 gneE74 gneE72 gneE86 gneE88 gneE33 gneE35 gneE37 gneE39 gneE41 gneE43 gneE45 gneE47 gneE49 gneE51"/>
    </vehicle>
    <vehicle id="myflow11.15" type="bus" depart="890.10">
        <route edges="gneE64 gneE62 gneE85 gneE88 gneE33 gneE35 gneE37 gneE39 gneE41 gneE43 gneE45 gneE47 gneE49 gneE51"/>
    </vehicle>
    <vehicle id="myflow10.10" type="bus" depart="890.10">
        <route edges="gneE64 gneE62 gneE85 gneE22 gneE19 gneE20"/>
    </vehicle>
    <vehicle id="myflow3.13" type="bus" depart="923.23">
        <route edges="gneE0 gneE16 gneE21 gneE88 gneE33 gneE35 gneE37 gneE39 gneE41 gneE43 gneE45 gneE47 gneE49 gneE51"/>
    </vehicle>
    <vehicle id="myflow2.14" type="bus" depart="928.90">
        <route edges="gneE52 gneE50 gneE48 gneE46 gneE44 gneE42 gneE40 gneE38 gneE36 gneE34 gneE89 gneE22 gneE19 gneE20"/>
    </vehicle>
    <vehicle id="myflow9.9" type="bus" depart="937.38">
        <route edges="gneE81 gneE79 gneE77 -32587322#2 -32587322#1 -468249333#1 -468249333#0 gneE20"/>
    </vehicle>
    <vehicle id="myflow8.12" type="bus" depart="946.82">
        <route edges="gneE81 gneE79 gneE77 gneE74 gneE72 gneE86 gneE88 gneE33 gneE35 gneE37 gneE39 gneE41 gneE43 gneE45 gneE47 gneE49 gneE51"/>
    </vehicle>
    <vehicle id="myflow6.14" type="bus" depart="954.12">
        <route edges="gneE52 gneE50 gneE48 gneE46 gneE44 gneE42 gneE40 gneE38 gneE36 gneE34 gneE89 gneE84 gneE61 gneE63"/>
    </vehicle>
    <vehicle id="myflow4.14" type="bus" depart="954.16">
        <route edges="gneE0 gneE16 gneE21 gneE84 gneE61 gneE63"/>
    </vehicle>
    <vehicle id="myflow4.15" type="bus" depart="955.98">
        <route edges="gneE0 gneE16 gneE21 gneE84 gneE61 gneE63"/>
    </vehicle>
    <vehicle id="myflow9.10" type="bus" depart="973.10">
        <route edges="gneE81 gneE79 gneE77 -32587322#2 -32587322#1 -468249333#1 -468249333#0 gneE20"/>
    </vehicle>
    <vehicle id="myflow.11" type="bus" depart="984.39">
        <route edges="gneE81 gneE79 gneE77 gneE74 gneE72 gneE86 gneE84 gneE61 gneE63"/>
    </vehicle>
    <vehicle id="myflow1.10" type="bus" depart="997.76">