<?xml version="1.0" encoding="UTF-8"?>

<!-- generated on Fri Jan 11 22:21:21 2019 by SUMO duarouter Version 0.32.0
<?xml version="1.0" encoding="UTF-8"?>

<configuration xmlns:xsi="http://www.w3.org/2001/XMLSchema-instance" xsi:noNamespaceSchemaLocation="http://sumo.dlr.de/xsd/duarouterConfiguration.xsd">

    <input>
        <net-file value="net.net.xml"/>
        <route-files value="trips.trips.xml"/>
    </input>

    <output>
        <output-file value="result.rou.xml"/>
        <alternatives-output value="result.rou.alt.xml"/>
    </output>

</configuration>
-->

<routes xmlns:xsi="http://www.w3.org/2001/XMLSchema-instance"
        xsi:noNamespaceSchemaLocation="http://sumo.dlr.de/xsd/routes_file.xsd">
    <vType id="bus" vClass="bus" guiShape="bus" minGap="2" length="9.44" width="2.45" height="3.1"
           latAlignment="left" lcPushy="1"/>
    <flow id="myflow" begin="0" end="5000" number="70" from="gneE81" to="gneE63" type="bus"/>
    <flow id="myflow1" begin="0" end="5000" number="70" from="gneE64" to="gneE80" type="bus"/>
    <flow id="myflow2" begin="0" end="5000" number="70" from="gneE52" to="gneE20" type="bus"/>
    <flow id="myflow3" begin="0" end="5000" number="70" from="gneE0" to="gneE51" type="bus"/>

    <flow id="myflow8" begin="0" end="5000" number="70" from="gneE81" to="gneE51" type="bus"/>
    <flow id="myflow9" begin="0" end="5000" number="70" from="gneE81" to="gneE20" type="bus"/>
    <flow id="myflow10" begin="0" end="5000" number="70" from="gneE64" to="gneE20" type="bus"/>
    <flow id="myflow11" begin="0" end="5000" number="70" from="gneE64" to="gneE51" type="bus"/>

    <flow id="myflow4" begin="0" end="5000" number="70" from="gneE0" to="gneE63" type="bus"/>
    <flow id="myflow5" begin="0" end="5000" number="70" from="gneE0" to="gneE80" type="bus"/>
    <flow id="myflow6" begin="0" end="5000" number="70" from="gneE52" to="gneE63" type="bus"/>
    <flow id="myflow7" begin="0" end="5000" number="70" from="gneE52" to="gneE80" type="bus"/>

    <flow id="myflow93" begin="3000" end="6000" number="70" from="gneE81" to="gneE63" type="bus"/>
    <flow id="myflow94" begin="3000" end="6000" number="70" from="gneE64" to="gneE80" type="bus"/>
    <flow id="myflow95" begin="3000" end="6000" number="70" from="gneE81" to="gneE51" type="bus"/>
    <flow id="myflow96" begin="3000" end="6000" number="70" from="gneE81" to="gneE20" type="bus"/>
    <flow id="myflow97" begin="3000" end="6000" number="70" from="gneE64" to="gneE20" type="bus"/>
    <flow id="myflow98" begin="3000" end="6000" number="70" from="gneE64" to="gneE51" type="bus"/>


    <vType id="bicycle" vClass="bicycle" minGap="0.5" latAlignment="arbitrary" lcPushy="1"/>
    <flow id="myflow12" begin="0" end="5000" number="15" from="gneE81" to="gneE63" type="bicycle"/>
    <flow id="myflow13" begin="0" end="5000" number="15" from="gneE64" to="gneE80" type="bicycle"/>
    <flow id="myflow14" begin="0" end="5000" number="15" from="gneE52" to="gneE20" type="bicycle"/>
    <flow id="myflow15" begin="0" end="5000" number="15" from="gneE0" to="gneE51" type="bicycle"/>

    <flow id="myflow20" begin="0" end="5000" number="15" from="gneE81" to="gneE51" type="bicycle"/>
    <flow id="myflow21" begin="0" end="5000" number="15" from="gneE81" to="gneE20" type="bicycle"/>
    <flow id="myflow22" begin="0" end="5000" number="15" from="gneE64" to="gneE20" type="bicycle"/>
    <flow id="myflow23" begin="0" end="5000" number="15" from="gneE64" to="gneE51" type="bicycle"/>

    <flow id="myflow99" begin="0" end="5000" number="15" from="gneE0" to="gneE63" type="bicycle"/>
    <flow id="myflow100" begin="0" end="5000" number="15" from="gneE0" to="gneE80" type="bicycle"/>
    <flow id="myflow101" begin="0" end="5000" number="15" from="gneE52" to="gneE63" type="bicycle"/>
    <flow id="myflow102" begin="0" end="5000" number="15" from="gneE52" to="gneE80" type="bicycle"/>

    <flow id="myflow103" begin="3000" end="6000" number="15" from="gneE81" to="gneE63" type="bicycle"/>
    <flow id="myflow104" begin="3000" end="6000" number="15" from="gneE64" to="gneE80" type="bicycle"/>
    <flow id="myflow105" begin="3000" end="6000" number="15" from="gneE81" to="gneE51" type="bicycle"/>
    <flow id="myflow106" begin="3000" end="6000" number="15" from="gneE81" to="gneE20" type="bicycle"/>
    <flow id="myflow107" begin="3000" end="6000" number="15" from="gneE64" to="gneE20" type="bicycle"/>
    <flow id="myflow108" begin="3000" end="6000" number="15" from="gneE64" to="gneE51" type="bicycle"/>

    <vType id="motorcycle" vClass="motorcycle" minGap="0.5" length="2.034" width="0.74" height="1.152"
           latAlignment="right" lcPushy="1"/>
    <flow id="myflow24" begin="0" end="5000" number="150" from="gneE81" to="gneE63" type="motorcycle"/>
    <flow id="myflow25" begin="0" end="5000" number="150" from="gneE64" to="gneE80" type="motorcycle"/>
    <flow id="myflow26" begin="0" end="5000" number="150" from="gneE52" to="gneE20" type="motorcycle"/>
    <flow id="myflow27" begin="0" end="5000" number="150" from="gneE0" to="gneE51" type="motorcycle"/>

    <flow id="myflow32" begin="0" end="5000" number="250" from="gneE81" to="gneE51" type="motorcycle"/>
    <flow id="myflow33" begin="0" end="5000" number="250" from="gneE81" to="gneE20" type="motorcycle"/>
    <flow id="myflow34" begin="0" end="5000" number="250" from="gneE64" to="gneE20" type="motorcycle"/>
    <flow id="myflow35" begin="0" end="5000" number="250" from="gneE64" to="gneE51" type="motorcycle"/>

    <flow id="myflo" begin="0" end="5000" number="250" from="gneE0" to="gneE63" type="motorcycle"/>
    <flow id="myflo1" begin="0" end="5000" number="250" from="gneE0" to="gneE80" type="motorcycle"/>
    <flow id="myflo2" begin="0" end="5000" number="250" from="gneE52" to="gneE63" type="motorcycle"/>
    <flow id="myflo3" begin="0" end="5000" number="250" from="gneE52" to="gneE80" type="motorcycle"/>

    <flow id="myflo4" begin="3000" end="6000" number="250" from="gneE81" to="gneE63" type="motorcycle"/>
    <flow id="myflo5" begin="3000" end="6000" number="250" from="gneE64" to="gneE80" type="motorcycle"/>
    <flow id="myflo6" begin="3000" end="6000" number="250" from="gneE81" to="gneE51" type="motorcycle"/>
    <flow id="myflo7" begin="3000" end="6000" number="250" from="gneE81" to="gneE20" type="motorcycle"/>
    <flow id="myflo8" begin="3000" end="6000" number="250" from="gneE64" to="gneE20" type="motorcycle"/>
    <flow id="myflo9" begin="3000" end="6000" number="250" from="gneE64" to="gneE51" type="motorcycle"/>

    <vType id="truckv1" vClass="truck" guiShape="truck" minGap="2" length="4.3" width="1.8" height="2.0"
           latAlignment="left" lcPushy="1"/>
    <flow id="myflow36" begin="0" end="5000" number="30" from="gneE81" to="gneE63" type="truckv1"/>
    <flow id="myflow37" begin="0" end="5000" number="30" from="gneE64" to="gneE80" type="truckv1"/>
    <flow id="myflow38" begin="0" end="5000" number="30" from="gneE52" to="gneE20" type="truckv1"/>
    <flow id="myflow39" begin="0" end="5000" number="30" from="gneE0" to="gneE51" type="truckv1"/>

    <flow id="myflow44" begin="0" end="5000" number="30" from="gneE81" to="gneE51" type="truckv1"/>
    <flow id="myflow45" begin="0" end="5000" number="30" from="gneE81" to="gneE20" type="truckv1"/>
    <flow id="myflow46" begin="0" end="5000" number="30" from="gneE64" to="gneE20" type="truckv1"/>
    <flow id="myflow47" begin="0" end="5000" number="30" from="gneE64" to="gneE51" type="truckv1"/>

    <flow id="myflo26" begin="0" end="5000" number="30" from="gneE0" to="gneE63" type="truckv1"/>
    <flow id="myflo27" begin="0" end="5000" number="30" from="gneE0" to="gneE80" type="truckv1"/>
    <flow id="myflo28" begin="0" end="5000" number="30" from="gneE52" to="gneE63" type="truckv1"/>
    <flow id="myflo29" begin="0" end="5000" number="30" from="gneE52" to="gneE80" type="truckv1"/>

    <flow id="myflo14" begin="3000" end="6000" number="30" from="gneE81" to="gneE63" type="truckv1"/>
    <flow id="myflo15" begin="3000" end="6000" number="30" from="gneE64" to="gneE80" type="truckv1"/>
    <flow id="myflo16" begin="3000" end="6000" number="30" from="gneE81" to="gneE51" type="truckv1"/>
    <flow id="myflo17" begin="3000" end="6000" number="30" from="gneE81" to="gneE20" type="truckv1"/>
    <flow id="myflo18" begin="3000" end="6000" number="30" from="gneE64" to="gneE20" type="truckv1"/>
    <flow id="myflo19" begin="3000" end="6000" number="30" from="gneE64" to="gneE51" type="truckv1"/>

    <vType id="truckv2" vClass="truck" guiShape="truck" minGap="2" length="9.5" width="2.35" height="2.6"
           latAlignment="left" lcPushy="1"/>
    <flow id="myflow48" begin="0" end="5000" number="30" from="gneE81" to="gneE63" type="truckv2"/>
    <flow id="myflow49" begin="0" end="5000" number="30" from="gneE64" to="gneE80" type="truckv2"/>
    <flow id="myflow50" begin="0" end="5000" number="30" from="gneE52" to="gneE20" type="truckv2"/>
    <flow id="myflow51" begin="0" end="5000" number="30" from="gneE0" to="gneE51" type="truckv2"/>

    <flow id="myflow56" begin="0" end="5000" number="30" from="gneE81" to="gneE51" type="truckv2"/>
    <flow id="myflow57" begin="0" end="5000" number="30" from="gneE81" to="gneE20" type="truckv2"/>
    <flow id="myflow58" begin="0" end="5000" number="30" from="gneE64" to="gneE20" type="truckv2"/>
    <flow id="myflow59" begin="0" end="5000" number="30" from="gneE64" to="gneE51" type="truckv2"/>

    <flow id="myflo30" begin="0" end="5000" number="30" from="gneE0" to="gneE63" type="truckv2"/>
    <flow id="myflo31" begin="0" end="5000" number="30" from="gneE0" to="gneE80" type="truckv2"/>
    <flow id="myflo32" begin="0" end="5000" number="30" from="gneE52" to="gneE63" type="truckv2"/>
    <flow id="myflo33" begin="0" end="5000" number="30" from="gneE52" to="gneE80" type="truckv2"/>

    <flow id="myflo20" begin="3000" end="6000" number="30" from="gneE81" to="gneE63" type="truckv2"/>
    <flow id="myflo21" begin="3000" end="6000" number="30" from="gneE64" to="gneE80" type="truckv2"/>
    <flow id="myflo22" begin="3000" end="6000" number="30" from="gneE81" to="gneE51" type="truckv2"/>
    <flow id="myflo23" begin="3000" end="6000" number="30" from="gneE81" to="gneE20" type="truckv2"/>
    <flow id="myflo24" begin="3000" end="6000" number="30" from="gneE64" to="gneE20" type="truckv2"/>
    <flow id="myflo25" begin="3000" end="6000" number="30" from="gneE64" to="gneE51" type="truckv2"/>

    <vType id="police" vClass="emergency" guiShape="police" minGap="2"
           latAlignment="arbitrary" lcPushy="1"/>
    <vType id="firebrigade" vClass="emergency" guiShape="firebrigade"
           latAlignment="arbitrary" lcPushy="1"/>
    <vType id="emergency" vClass="emergency" guiShape="emergency"
           latAlignment="arbitrary" lcPushy="1"/>
    <flow id="myflow60" begin="0" end="5000" number="5" from="gneE81" to="gneE63" type="police"/>
    <flow id="myflow61" begin="0" end="5000" number="5" from="gneE81" to="gneE63" type="firebrigade"/>
    <flow id="myflow62" begin="0" end="5000" number="5" from="gneE81" to="gneE63" type="emergency"/>
    <flow id="myflow63" begin="0" end="5000" number="5" from="gneE64" to="gneE80" type="police"/>
    <flow id="myflow64" begin="0" end="5000" number="5" from="gneE64" to="gneE80" type="firebrigade"/>
    <flow id="myflow65" begin="0" end="5000" number="5" from="gneE64" to="gneE80" type="emergency"/>
    <flow id="myflow66" begin="0" end="5000" number="5" from="gneE52" to="gneE20" type="police"/>
    <flow id="myflow67" begin="0" end="5000" number="5" from="gneE52" to="gneE20" type="firebrigade"/>
    <flow id="myflow68" begin="0" end="5000" number="5" from="gneE52" to="gneE20" type="emergency"/>
    <flow id="myflow69" begin="0" end="5000" number="5" from="gneE0" to="gneE51" type="police"/>
    <flow id="myflow70" begin="0" end="5000" number="5" from="gneE0" to="gneE51" type="firebrigade"/>
    <flow id="myflow71" begin="0" end="5000" number="5" from="gneE0" to="gneE51" type="emergency"/>
    <flow id="myflow72" begin="0" end="5000" number="5" from="T1" to="gneE51" type="police"/>
    <flow id="myflow73" begin="0" end="5000" number="5" from="T1" to="gneE51" type="firebrigade"/>
    <flow id="myflow74" begin="0" end="5000" number="5" from="T1" to="gneE51" type="emergency"/>
    <flow id="myflow75" begin="0" end="5000" number="5" from="T2" to="gneE51" type="police"/>
    <flow id="myflow76" begin="0" end="5000" number="5" from="T2" to="gneE51" type="firebrigade"/>
    <flow id="myflow77" begin="0" end="5000" number="5" from="T2" to="gneE51" type="emergency"/>
    <flow id="myflow78" begin="0" end="5000" number="5" from="T8" to="gneE51" type="police"/>
    <flow id="myflow79" begin="0" end="5000" number="5" from="T8" to="gneE51" type="firebrigade"/>
    <flow id="myflow80" begin="0" end="5000" number="5" from="T8" to="gneE51" type="emergency"/>

    <vType id="taxi" vClass="taxi" guiShape="passenger/van" minGap="2"
           latAlignment="left" lcPushy="1"/>
    <flow id="myflow81" begin="0" end="5000" number="30" from="gneE81" to="gneE63" type="taxi"/>
    <flow id="myflow82" begin="0" end="5000" number="30" from="gneE64" to="gneE80" type="taxi"/>
    <flow id="myflow83" begin="0" end="5000" number="30" from="gneE52" to="gneE20" type="taxi"/>
    <flow id="myflow84" begin="0" end="5000" number="30" from="gneE0" to="gneE51" type="taxi"/>

    <flow id="myflow89" begin="0" end="5000" number="30" from="gneE81" to="gneE51" type="taxi"/>
    <flow id="myflow90" begin="0" end="5000" number="30" from="gneE81" to="gneE20" type="taxi"/>
    <flow id="myflow91" begin="0" end="5000" number="30" from="gneE64" to="gneE20" type="taxi"/>
    <flow id="myflow92" begin="0" end="5000" number="30" from="gneE64" to="gneE51" type="taxi"/>

    <flow id="myflo34" begin="0" end="5000" number="30" from="gneE0" to="gneE63" type="taxi"/>
    <flow id="myflo35" begin="0" end="5000" number="30" from="gneE0" to="gneE80" type="taxi"/>
    <flow id="myflo36" begin="0" end="5000" number="30" from="gneE52" to="gneE63" type="taxi"/>
    <flow id="myflo37" begin="0" end="5000" number="30" from="gneE52" to="gneE80" type="taxi"/>

    <flow id="myflo38" begin="3000" end="6000" number="30" from="gneE81" to="gneE63" type="taxi"/>
    <flow id="myflo39" begin="3000" end="6000" number="30" from="gneE64" to="gneE80" type="taxi"/>
    <flow id="myflo40" begin="3000" end="6000" number="30" from="gneE81" to="gneE51" type="taxi"/>
    <flow id="myflo41" begin="3000" end="6000" number="30" from="gneE81" to="gneE20" type="taxi"/>
    <flow id="myflo42" begin="3000" end="6000" number="30" from="gneE64" to="gneE20" type="taxi"/>
    <flow id="myflo43" begin="3000" end="6000" number="30" from="gneE64" to="gneE51" type="taxi"/>
</routes>
